
---------- Begin Simulation Statistics ----------
sim_seconds                                  2.784069                       # Number of seconds simulated
sim_ticks                                2784068590887                       # Number of ticks simulated
final_tick                               146261056907961                       # Number of ticks from beginning of simulation (restored from checkpoints and never reset)
sim_freq                                 1000000000000                       # Frequency of simulated ticks
host_inst_rate                                 232880                       # Simulator instruction rate (inst/s)
host_op_rate                                   232880                       # Simulator op (including micro ops) rate (op/s)
host_tick_rate                              463110659                       # Simulator tick rate (ticks/s)
host_mem_usage                                2541312                       # Number of bytes of host memory used
host_seconds                                  6011.67                       # Real time elapsed on the host
sim_insts                                  1400000004                       # Number of instructions simulated
sim_ops                                    1400000004                       # Number of ops (including micro ops) simulated
system.voltage_domain.voltage                       1                       # Voltage in Volts
system.clk_domain.clock                          1000                       # Clock period in ticks
system.mem_ctrls0.pwrStateResidencyTicks::UNDEFINED 146261056907961                       # Cumulative time (in ticks) in various power states
system.mem_ctrls0.bytes_read::cpu.inst            128                       # Number of bytes read from this memory
system.mem_ctrls0.bytes_read::cpu.data            256                       # Number of bytes read from this memory
system.mem_ctrls0.bytes_read::switch_cpus.inst        20864                       # Number of bytes read from this memory
system.mem_ctrls0.bytes_read::switch_cpus.data    477352000                       # Number of bytes read from this memory
system.mem_ctrls0.bytes_read::switch_cpus_1.inst        13568                       # Number of bytes read from this memory
system.mem_ctrls0.bytes_read::switch_cpus_1.data    152078656                       # Number of bytes read from this memory
system.mem_ctrls0.bytes_read::total         629465472                       # Number of bytes read from this memory
system.mem_ctrls0.bytes_inst_read::cpu.inst          128                       # Number of instructions bytes read from this memory
system.mem_ctrls0.bytes_inst_read::switch_cpus.inst        20864                       # Number of instructions bytes read from this memory
system.mem_ctrls0.bytes_inst_read::switch_cpus_1.inst        13568                       # Number of instructions bytes read from this memory
system.mem_ctrls0.bytes_inst_read::total        34560                       # Number of instructions bytes read from this memory
system.mem_ctrls0.bytes_written::writebacks    318847168                       # Number of bytes written to this memory
system.mem_ctrls0.bytes_written::total      318847168                       # Number of bytes written to this memory
system.mem_ctrls0.num_reads::cpu.inst               2                       # Number of read requests responded to by this memory
system.mem_ctrls0.num_reads::cpu.data               4                       # Number of read requests responded to by this memory
system.mem_ctrls0.num_reads::switch_cpus.inst          326                       # Number of read requests responded to by this memory
system.mem_ctrls0.num_reads::switch_cpus.data      7458625                       # Number of read requests responded to by this memory
system.mem_ctrls0.num_reads::switch_cpus_1.inst          212                       # Number of read requests responded to by this memory
system.mem_ctrls0.num_reads::switch_cpus_1.data      2376229                       # Number of read requests responded to by this memory
system.mem_ctrls0.num_reads::total            9835398                       # Number of read requests responded to by this memory
system.mem_ctrls0.num_writes::writebacks      4981987                       # Number of write requests responded to by this memory
system.mem_ctrls0.num_writes::total           4981987                       # Number of write requests responded to by this memory
system.mem_ctrls0.bw_read::cpu.inst                46                       # Total read bandwidth from this memory (bytes/s)
system.mem_ctrls0.bw_read::cpu.data                92                       # Total read bandwidth from this memory (bytes/s)
system.mem_ctrls0.bw_read::switch_cpus.inst         7494                       # Total read bandwidth from this memory (bytes/s)
system.mem_ctrls0.bw_read::switch_cpus.data    171458419                       # Total read bandwidth from this memory (bytes/s)
system.mem_ctrls0.bw_read::switch_cpus_1.inst         4873                       # Total read bandwidth from this memory (bytes/s)
system.mem_ctrls0.bw_read::switch_cpus_1.data     54624608                       # Total read bandwidth from this memory (bytes/s)
system.mem_ctrls0.bw_read::total            226095533                       # Total read bandwidth from this memory (bytes/s)
system.mem_ctrls0.bw_inst_read::cpu.inst           46                       # Instruction read bandwidth from this memory (bytes/s)
system.mem_ctrls0.bw_inst_read::switch_cpus.inst         7494                       # Instruction read bandwidth from this memory (bytes/s)
system.mem_ctrls0.bw_inst_read::switch_cpus_1.inst         4873                       # Instruction read bandwidth from this memory (bytes/s)
system.mem_ctrls0.bw_inst_read::total           12413                       # Instruction read bandwidth from this memory (bytes/s)
system.mem_ctrls0.bw_write::writebacks      114525615                       # Write bandwidth from this memory (bytes/s)
system.mem_ctrls0.bw_write::total           114525615                       # Write bandwidth from this memory (bytes/s)
system.mem_ctrls0.bw_total::writebacks      114525615                       # Total bandwidth to/from this memory (bytes/s)
system.mem_ctrls0.bw_total::cpu.inst               46                       # Total bandwidth to/from this memory (bytes/s)
system.mem_ctrls0.bw_total::cpu.data               92                       # Total bandwidth to/from this memory (bytes/s)
system.mem_ctrls0.bw_total::switch_cpus.inst         7494                       # Total bandwidth to/from this memory (bytes/s)
system.mem_ctrls0.bw_total::switch_cpus.data    171458419                       # Total bandwidth to/from this memory (bytes/s)
system.mem_ctrls0.bw_total::switch_cpus_1.inst         4873                       # Total bandwidth to/from this memory (bytes/s)
system.mem_ctrls0.bw_total::switch_cpus_1.data     54624608                       # Total bandwidth to/from this memory (bytes/s)
system.mem_ctrls0.bw_total::total           340621148                       # Total bandwidth to/from this memory (bytes/s)
system.mem_ctrls0.readReqs                    9835398                       # Number of read requests accepted
system.mem_ctrls0.writeReqs                   4981987                       # Number of write requests accepted
system.mem_ctrls0.readBursts                  9835398                       # Number of DRAM read bursts, including those serviced by the write queue
system.mem_ctrls0.writeBursts                 4981987                       # Number of DRAM write bursts, including those merged in the write queue
system.mem_ctrls0.bytesReadDRAM             629463872                       # Total number of bytes read from DRAM
system.mem_ctrls0.bytesReadWrQ                   1600                       # Total number of bytes read from write queue
system.mem_ctrls0.bytesWritten              318846016                       # Total number of bytes written to DRAM
system.mem_ctrls0.bytesReadSys              629465472                       # Total read bytes from the system interface side
system.mem_ctrls0.bytesWrittenSys           318847168                       # Total written bytes from the system interface side
system.mem_ctrls0.servicedByWrQ                    25                       # Number of DRAM read bursts serviced by the write queue
system.mem_ctrls0.mergedWrBursts                    0                       # Number of DRAM write bursts merged with an existing one
system.mem_ctrls0.neitherReadNorWriteReqs            0                       # Number of requests that are neither read nor write
system.mem_ctrls0.perBankRdBursts::0           615936                       # Per bank write bursts
system.mem_ctrls0.perBankRdBursts::1           613053                       # Per bank write bursts
system.mem_ctrls0.perBankRdBursts::2           613073                       # Per bank write bursts
system.mem_ctrls0.perBankRdBursts::3           614910                       # Per bank write bursts
system.mem_ctrls0.perBankRdBursts::4           617091                       # Per bank write bursts
system.mem_ctrls0.perBankRdBursts::5           616095                       # Per bank write bursts
system.mem_ctrls0.perBankRdBursts::6           614894                       # Per bank write bursts
system.mem_ctrls0.perBankRdBursts::7           612996                       # Per bank write bursts
system.mem_ctrls0.perBankRdBursts::8           613978                       # Per bank write bursts
system.mem_ctrls0.perBankRdBursts::9           613665                       # Per bank write bursts
system.mem_ctrls0.perBankRdBursts::10          614419                       # Per bank write bursts
system.mem_ctrls0.perBankRdBursts::11          615722                       # Per bank write bursts
system.mem_ctrls0.perBankRdBursts::12          614391                       # Per bank write bursts
system.mem_ctrls0.perBankRdBursts::13          613838                       # Per bank write bursts
system.mem_ctrls0.perBankRdBursts::14          615548                       # Per bank write bursts
system.mem_ctrls0.perBankRdBursts::15          615764                       # Per bank write bursts
system.mem_ctrls0.perBankWrBursts::0           312618                       # Per bank write bursts
system.mem_ctrls0.perBankWrBursts::1           311193                       # Per bank write bursts
system.mem_ctrls0.perBankWrBursts::2           310817                       # Per bank write bursts
system.mem_ctrls0.perBankWrBursts::3           310978                       # Per bank write bursts
system.mem_ctrls0.perBankWrBursts::4           312037                       # Per bank write bursts
system.mem_ctrls0.perBankWrBursts::5           311938                       # Per bank write bursts
system.mem_ctrls0.perBankWrBursts::6           311683                       # Per bank write bursts
system.mem_ctrls0.perBankWrBursts::7           310280                       # Per bank write bursts
system.mem_ctrls0.perBankWrBursts::8           310329                       # Per bank write bursts
system.mem_ctrls0.perBankWrBursts::9           310872                       # Per bank write bursts
system.mem_ctrls0.perBankWrBursts::10          312085                       # Per bank write bursts
system.mem_ctrls0.perBankWrBursts::11          312372                       # Per bank write bursts
system.mem_ctrls0.perBankWrBursts::12          311128                       # Per bank write bursts
system.mem_ctrls0.perBankWrBursts::13          310124                       # Per bank write bursts
system.mem_ctrls0.perBankWrBursts::14          311386                       # Per bank write bursts
system.mem_ctrls0.perBankWrBursts::15          312129                       # Per bank write bursts
system.mem_ctrls0.numRdRetry                        0                       # Number of times read queue was full causing retry
system.mem_ctrls0.numWrRetry                        0                       # Number of times write queue was full causing retry
system.mem_ctrls0.totGap                 2784068408736                       # Total gap between requests
system.mem_ctrls0.readPktSize::0                    0                       # Read request sizes (log2)
system.mem_ctrls0.readPktSize::1                    0                       # Read request sizes (log2)
system.mem_ctrls0.readPktSize::2                    0                       # Read request sizes (log2)
system.mem_ctrls0.readPktSize::3                    0                       # Read request sizes (log2)
system.mem_ctrls0.readPktSize::4                    0                       # Read request sizes (log2)
system.mem_ctrls0.readPktSize::5                    0                       # Read request sizes (log2)
system.mem_ctrls0.readPktSize::6              9835398                       # Read request sizes (log2)
system.mem_ctrls0.writePktSize::0                   0                       # Write request sizes (log2)
system.mem_ctrls0.writePktSize::1                   0                       # Write request sizes (log2)
system.mem_ctrls0.writePktSize::2                   0                       # Write request sizes (log2)
system.mem_ctrls0.writePktSize::3                   0                       # Write request sizes (log2)
system.mem_ctrls0.writePktSize::4                   0                       # Write request sizes (log2)
system.mem_ctrls0.writePktSize::5                   0                       # Write request sizes (log2)
system.mem_ctrls0.writePktSize::6             4981987                       # Write request sizes (log2)
system.mem_ctrls0.rdQLenPdf::0                8980893                       # What read queue length does an incoming req see
system.mem_ctrls0.rdQLenPdf::1                 607121                       # What read queue length does an incoming req see
system.mem_ctrls0.rdQLenPdf::2                 209478                       # What read queue length does an incoming req see
system.mem_ctrls0.rdQLenPdf::3                  37878                       # What read queue length does an incoming req see
system.mem_ctrls0.rdQLenPdf::4                      3                       # What read queue length does an incoming req see
system.mem_ctrls0.rdQLenPdf::5                      0                       # What read queue length does an incoming req see
system.mem_ctrls0.rdQLenPdf::6                      0                       # What read queue length does an incoming req see
system.mem_ctrls0.rdQLenPdf::7                      0                       # What read queue length does an incoming req see
system.mem_ctrls0.rdQLenPdf::8                      0                       # What read queue length does an incoming req see
system.mem_ctrls0.rdQLenPdf::9                      0                       # What read queue length does an incoming req see
system.mem_ctrls0.rdQLenPdf::10                     0                       # What read queue length does an incoming req see
system.mem_ctrls0.rdQLenPdf::11                     0                       # What read queue length does an incoming req see
system.mem_ctrls0.rdQLenPdf::12                     0                       # What read queue length does an incoming req see
system.mem_ctrls0.rdQLenPdf::13                     0                       # What read queue length does an incoming req see
system.mem_ctrls0.rdQLenPdf::14                     0                       # What read queue length does an incoming req see
system.mem_ctrls0.rdQLenPdf::15                     0                       # What read queue length does an incoming req see
system.mem_ctrls0.rdQLenPdf::16                     0                       # What read queue length does an incoming req see
system.mem_ctrls0.rdQLenPdf::17                     0                       # What read queue length does an incoming req see
system.mem_ctrls0.rdQLenPdf::18                     0                       # What read queue length does an incoming req see
system.mem_ctrls0.rdQLenPdf::19                     0                       # What read queue length does an incoming req see
system.mem_ctrls0.rdQLenPdf::20                     0                       # What read queue length does an incoming req see
system.mem_ctrls0.rdQLenPdf::21                     0                       # What read queue length does an incoming req see
system.mem_ctrls0.rdQLenPdf::22                     0                       # What read queue length does an incoming req see
system.mem_ctrls0.rdQLenPdf::23                     0                       # What read queue length does an incoming req see
system.mem_ctrls0.rdQLenPdf::24                     0                       # What read queue length does an incoming req see
system.mem_ctrls0.rdQLenPdf::25                     0                       # What read queue length does an incoming req see
system.mem_ctrls0.rdQLenPdf::26                     0                       # What read queue length does an incoming req see
system.mem_ctrls0.rdQLenPdf::27                     0                       # What read queue length does an incoming req see
system.mem_ctrls0.rdQLenPdf::28                     0                       # What read queue length does an incoming req see
system.mem_ctrls0.rdQLenPdf::29                     0                       # What read queue length does an incoming req see
system.mem_ctrls0.rdQLenPdf::30                     0                       # What read queue length does an incoming req see
system.mem_ctrls0.rdQLenPdf::31                     0                       # What read queue length does an incoming req see
system.mem_ctrls0.wrQLenPdf::0                      2                       # What write queue length does an incoming req see
system.mem_ctrls0.wrQLenPdf::1                      2                       # What write queue length does an incoming req see
system.mem_ctrls0.wrQLenPdf::2                      2                       # What write queue length does an incoming req see
system.mem_ctrls0.wrQLenPdf::3                      2                       # What write queue length does an incoming req see
system.mem_ctrls0.wrQLenPdf::4                      2                       # What write queue length does an incoming req see
system.mem_ctrls0.wrQLenPdf::5                      2                       # What write queue length does an incoming req see
system.mem_ctrls0.wrQLenPdf::6                      2                       # What write queue length does an incoming req see
system.mem_ctrls0.wrQLenPdf::7                      2                       # What write queue length does an incoming req see
system.mem_ctrls0.wrQLenPdf::8                      2                       # What write queue length does an incoming req see
system.mem_ctrls0.wrQLenPdf::9                      2                       # What write queue length does an incoming req see
system.mem_ctrls0.wrQLenPdf::10                     2                       # What write queue length does an incoming req see
system.mem_ctrls0.wrQLenPdf::11                     2                       # What write queue length does an incoming req see
system.mem_ctrls0.wrQLenPdf::12                     2                       # What write queue length does an incoming req see
system.mem_ctrls0.wrQLenPdf::13                     2                       # What write queue length does an incoming req see
system.mem_ctrls0.wrQLenPdf::14                     2                       # What write queue length does an incoming req see
system.mem_ctrls0.wrQLenPdf::15                150542                       # What write queue length does an incoming req see
system.mem_ctrls0.wrQLenPdf::16                158329                       # What write queue length does an incoming req see
system.mem_ctrls0.wrQLenPdf::17                275724                       # What write queue length does an incoming req see
system.mem_ctrls0.wrQLenPdf::18                290187                       # What write queue length does an incoming req see
system.mem_ctrls0.wrQLenPdf::19                292868                       # What write queue length does an incoming req see
system.mem_ctrls0.wrQLenPdf::20                293066                       # What write queue length does an incoming req see
system.mem_ctrls0.wrQLenPdf::21                292976                       # What write queue length does an incoming req see
system.mem_ctrls0.wrQLenPdf::22                293138                       # What write queue length does an incoming req see
system.mem_ctrls0.wrQLenPdf::23                293294                       # What write queue length does an incoming req see
system.mem_ctrls0.wrQLenPdf::24                293169                       # What write queue length does an incoming req see
system.mem_ctrls0.wrQLenPdf::25                292860                       # What write queue length does an incoming req see
system.mem_ctrls0.wrQLenPdf::26                292935                       # What write queue length does an incoming req see
system.mem_ctrls0.wrQLenPdf::27                293121                       # What write queue length does an incoming req see
system.mem_ctrls0.wrQLenPdf::28                293885                       # What write queue length does an incoming req see
system.mem_ctrls0.wrQLenPdf::29                294805                       # What write queue length does an incoming req see
system.mem_ctrls0.wrQLenPdf::30                297373                       # What write queue length does an incoming req see
system.mem_ctrls0.wrQLenPdf::31                291797                       # What write queue length does an incoming req see
system.mem_ctrls0.wrQLenPdf::32                291310                       # What write queue length does an incoming req see
system.mem_ctrls0.wrQLenPdf::33                   479                       # What write queue length does an incoming req see
system.mem_ctrls0.wrQLenPdf::34                    77                       # What write queue length does an incoming req see
system.mem_ctrls0.wrQLenPdf::35                    19                       # What write queue length does an incoming req see
system.mem_ctrls0.wrQLenPdf::36                     3                       # What write queue length does an incoming req see
system.mem_ctrls0.wrQLenPdf::37                     0                       # What write queue length does an incoming req see
system.mem_ctrls0.wrQLenPdf::38                     0                       # What write queue length does an incoming req see
system.mem_ctrls0.wrQLenPdf::39                     0                       # What write queue length does an incoming req see
system.mem_ctrls0.wrQLenPdf::40                     0                       # What write queue length does an incoming req see
system.mem_ctrls0.wrQLenPdf::41                     0                       # What write queue length does an incoming req see
system.mem_ctrls0.wrQLenPdf::42                     0                       # What write queue length does an incoming req see
system.mem_ctrls0.wrQLenPdf::43                     0                       # What write queue length does an incoming req see
system.mem_ctrls0.wrQLenPdf::44                     0                       # What write queue length does an incoming req see
system.mem_ctrls0.wrQLenPdf::45                     0                       # What write queue length does an incoming req see
system.mem_ctrls0.wrQLenPdf::46                     0                       # What write queue length does an incoming req see
system.mem_ctrls0.wrQLenPdf::47                     0                       # What write queue length does an incoming req see
system.mem_ctrls0.wrQLenPdf::48                     0                       # What write queue length does an incoming req see
system.mem_ctrls0.wrQLenPdf::49                     0                       # What write queue length does an incoming req see
system.mem_ctrls0.wrQLenPdf::50                     0                       # What write queue length does an incoming req see
system.mem_ctrls0.wrQLenPdf::51                     0                       # What write queue length does an incoming req see
system.mem_ctrls0.wrQLenPdf::52                     0                       # What write queue length does an incoming req see
system.mem_ctrls0.wrQLenPdf::53                     0                       # What write queue length does an incoming req see
system.mem_ctrls0.wrQLenPdf::54                     0                       # What write queue length does an incoming req see
system.mem_ctrls0.wrQLenPdf::55                     0                       # What write queue length does an incoming req see
system.mem_ctrls0.wrQLenPdf::56                     0                       # What write queue length does an incoming req see
system.mem_ctrls0.wrQLenPdf::57                     0                       # What write queue length does an incoming req see
system.mem_ctrls0.wrQLenPdf::58                     0                       # What write queue length does an incoming req see
system.mem_ctrls0.wrQLenPdf::59                     0                       # What write queue length does an incoming req see
system.mem_ctrls0.wrQLenPdf::60                     0                       # What write queue length does an incoming req see
system.mem_ctrls0.wrQLenPdf::61                     0                       # What write queue length does an incoming req see
system.mem_ctrls0.wrQLenPdf::62                     0                       # What write queue length does an incoming req see
system.mem_ctrls0.wrQLenPdf::63                     0                       # What write queue length does an incoming req see
system.mem_ctrls0.bytesPerActivate::samples      9913823                       # Bytes accessed per row activation
system.mem_ctrls0.bytesPerActivate::mean    95.655189                       # Bytes accessed per row activation
system.mem_ctrls0.bytesPerActivate::gmean    83.977228                       # Bytes accessed per row activation
system.mem_ctrls0.bytesPerActivate::stdev    63.156415                       # Bytes accessed per row activation
system.mem_ctrls0.bytesPerActivate::0-127      6996805     70.58%     70.58% # Bytes accessed per row activation
system.mem_ctrls0.bytesPerActivate::128-255      2391962     24.13%     94.70% # Bytes accessed per row activation
system.mem_ctrls0.bytesPerActivate::256-383       444810      4.49%     99.19% # Bytes accessed per row activation
system.mem_ctrls0.bytesPerActivate::384-511        59089      0.60%     99.79% # Bytes accessed per row activation
system.mem_ctrls0.bytesPerActivate::512-639        14017      0.14%     99.93% # Bytes accessed per row activation
system.mem_ctrls0.bytesPerActivate::640-767         3922      0.04%     99.97% # Bytes accessed per row activation
system.mem_ctrls0.bytesPerActivate::768-895         1416      0.01%     99.98% # Bytes accessed per row activation
system.mem_ctrls0.bytesPerActivate::896-1023          654      0.01%     99.99% # Bytes accessed per row activation
system.mem_ctrls0.bytesPerActivate::1024-1151         1148      0.01%    100.00% # Bytes accessed per row activation
system.mem_ctrls0.bytesPerActivate::total      9913823                       # Bytes accessed per row activation
system.mem_ctrls0.rdPerTurnAround::samples       290869                       # Reads before turning the bus around for writes
system.mem_ctrls0.rdPerTurnAround::mean     33.813751                       # Reads before turning the bus around for writes
system.mem_ctrls0.rdPerTurnAround::stdev    52.653906                       # Reads before turning the bus around for writes
system.mem_ctrls0.rdPerTurnAround::0-1023       290866    100.00%    100.00% # Reads before turning the bus around for writes
system.mem_ctrls0.rdPerTurnAround::1024-2047            2      0.00%    100.00% # Reads before turning the bus around for writes
system.mem_ctrls0.rdPerTurnAround::27648-28671            1      0.00%    100.00% # Reads before turning the bus around for writes
system.mem_ctrls0.rdPerTurnAround::total       290869                       # Reads before turning the bus around for writes
system.mem_ctrls0.wrPerTurnAround::samples       290869                       # Writes before turning the bus around for reads
system.mem_ctrls0.wrPerTurnAround::mean     17.127879                       # Writes before turning the bus around for reads
system.mem_ctrls0.wrPerTurnAround::gmean    17.093466                       # Writes before turning the bus around for reads
system.mem_ctrls0.wrPerTurnAround::stdev     1.088316                       # Writes before turning the bus around for reads
system.mem_ctrls0.wrPerTurnAround::16          133787     46.00%     46.00% # Writes before turning the bus around for reads
system.mem_ctrls0.wrPerTurnAround::17            5201      1.79%     47.78% # Writes before turning the bus around for reads
system.mem_ctrls0.wrPerTurnAround::18          135258     46.50%     94.29% # Writes before turning the bus around for reads
system.mem_ctrls0.wrPerTurnAround::19           14582      5.01%     99.30% # Writes before turning the bus around for reads
system.mem_ctrls0.wrPerTurnAround::20            1740      0.60%     99.90% # Writes before turning the bus around for reads
system.mem_ctrls0.wrPerTurnAround::21             220      0.08%     99.97% # Writes before turning the bus around for reads
system.mem_ctrls0.wrPerTurnAround::22              48      0.02%     99.99% # Writes before turning the bus around for reads
system.mem_ctrls0.wrPerTurnAround::23              21      0.01%    100.00% # Writes before turning the bus around for reads
system.mem_ctrls0.wrPerTurnAround::24               5      0.00%    100.00% # Writes before turning the bus around for reads
system.mem_ctrls0.wrPerTurnAround::25               3      0.00%    100.00% # Writes before turning the bus around for reads
system.mem_ctrls0.wrPerTurnAround::26               4      0.00%    100.00% # Writes before turning the bus around for reads
system.mem_ctrls0.wrPerTurnAround::total       290869                       # Writes before turning the bus around for reads
system.mem_ctrls0.totQLat                271332116236                       # Total ticks spent queuing
system.mem_ctrls0.totMemAccLat           455745359986                       # Total ticks spent from burst creation until serviced by the DRAM
system.mem_ctrls0.totBusLat               49176865000                       # Total ticks spent in databus transfers
system.mem_ctrls0.avgQLat                    27587.37                       # Average queueing delay per DRAM burst
system.mem_ctrls0.avgBusLat                   5000.00                       # Average bus latency per DRAM burst
system.mem_ctrls0.avgMemAccLat               46337.37                       # Average memory access latency per DRAM burst
system.mem_ctrls0.avgRdBW                      226.09                       # Average DRAM read bandwidth in MiByte/s
system.mem_ctrls0.avgWrBW                      114.53                       # Average achieved write bandwidth in MiByte/s
system.mem_ctrls0.avgRdBWSys                   226.10                       # Average system read bandwidth in MiByte/s
system.mem_ctrls0.avgWrBWSys                   114.53                       # Average system write bandwidth in MiByte/s
system.mem_ctrls0.peakBW                     12800.00                       # Theoretical peak bandwidth in MiByte/s
system.mem_ctrls0.busUtil                        2.66                       # Data bus utilization in percentage
system.mem_ctrls0.busUtilRead                    1.77                       # Data bus utilization in percentage for reads
system.mem_ctrls0.busUtilWrite                   0.89                       # Data bus utilization in percentage for writes
system.mem_ctrls0.avgRdQLen                      1.05                       # Average read queue length when enqueuing
system.mem_ctrls0.avgWrQLen                     24.83                       # Average write queue length when enqueuing
system.mem_ctrls0.readRowHits                 3559283                       # Number of row buffer hits during reads
system.mem_ctrls0.writeRowHits                1344228                       # Number of row buffer hits during writes
system.mem_ctrls0.readRowHitRate                36.19                       # Row buffer hit rate for reads
system.mem_ctrls0.writeRowHitRate               26.98                       # Row buffer hit rate for writes
system.mem_ctrls0.avgGap                    187892.02                       # Average gap between requests
system.mem_ctrls0.pageHitRate                   33.09                       # Row buffer hit rate, read and write combined
system.mem_ctrls0_0.actEnergy             35393793960                       # Energy for activate commands per rank (pJ)
system.mem_ctrls0_0.preEnergy             18812232450                       # Energy for precharge commands per rank (pJ)
system.mem_ctrls0_0.readEnergy            35114862720                       # Energy for read commands per rank (pJ)
system.mem_ctrls0_0.writeEnergy           13005859680                       # Energy for write commands per rank (pJ)
system.mem_ctrls0_0.refreshEnergy        219089657280.000061                       # Energy for refresh commands per rank (pJ)
system.mem_ctrls0_0.actBackEnergy        209889566130                       # Energy for active background per rank (pJ)
system.mem_ctrls0_0.preBackEnergy          5693344320                       # Energy for precharge background per rank (pJ)
system.mem_ctrls0_0.actPowerDownEnergy   942562210410                       # Energy for active power-down per rank (pJ)
system.mem_ctrls0_0.prePowerDownEnergy    76201024320                       # Energy for precharge power-down per rank (pJ)
system.mem_ctrls0_0.selfRefreshEnergy     13098454095                       # Energy for self refresh per rank (pJ)
system.mem_ctrls0_0.totalEnergy          1568878992735                       # Total energy per rank (pJ)
system.mem_ctrls0_0.averagePower           563.520236                       # Core power per rank (mW)
system.mem_ctrls0_0.totalIdleTime        2308935100706                       # Total Idle time Per DRAM Rank
system.mem_ctrls0_0.memoryStateTime::IDLE   3317062298                       # Time in different power states
system.mem_ctrls0_0.memoryStateTime::REF  92708300000                       # Time in different power states
system.mem_ctrls0_0.memoryStateTime::SREF  43455456447                       # Time in different power states
system.mem_ctrls0_0.memoryStateTime::PRE_PDN 198441772815                       # Time in different power states
system.mem_ctrls0_0.memoryStateTime::ACT 379108127883                       # Time in different power states
system.mem_ctrls0_0.memoryStateTime::ACT_PDN 2067037871444                       # Time in different power states
system.mem_ctrls0_1.actEnergy             35390959380                       # Energy for activate commands per rank (pJ)
system.mem_ctrls0_1.preEnergy             18810725835                       # Energy for precharge commands per rank (pJ)
system.mem_ctrls0_1.readEnergy            35109700500                       # Energy for read commands per rank (pJ)
system.mem_ctrls0_1.writeEnergy           13000018500                       # Energy for write commands per rank (pJ)
system.mem_ctrls0_1.refreshEnergy        218803849680.000061                       # Energy for refresh commands per rank (pJ)
system.mem_ctrls0_1.actBackEnergy        209048843490                       # Energy for active background per rank (pJ)
system.mem_ctrls0_1.preBackEnergy          5666477760                       # Energy for precharge background per rank (pJ)
system.mem_ctrls0_1.actPowerDownEnergy   943886277660                       # Energy for active power-down per rank (pJ)
system.mem_ctrls0_1.prePowerDownEnergy    75283845120                       # Energy for precharge power-down per rank (pJ)
system.mem_ctrls0_1.selfRefreshEnergy     13265518680                       # Energy for self refresh per rank (pJ)
system.mem_ctrls0_1.totalEnergy          1568286710565                       # Total energy per rank (pJ)
system.mem_ctrls0_1.averagePower           563.307494                       # Core power per rank (mW)
system.mem_ctrls0_1.totalIdleTime        2310822395998                       # Total Idle time Per DRAM Rank
system.mem_ctrls0_1.memoryStateTime::IDLE   3238935415                       # Time in different power states
system.mem_ctrls0_1.memoryStateTime::REF  92585600000                       # Time in different power states
system.mem_ctrls0_1.memoryStateTime::SREF  44848354255                       # Time in different power states
system.mem_ctrls0_1.memoryStateTime::PRE_PDN 196051061272                       # Time in different power states
system.mem_ctrls0_1.memoryStateTime::ACT 377421609089                       # Time in different power states
system.mem_ctrls0_1.memoryStateTime::ACT_PDN 2069923030856                       # Time in different power states
system.mem_ctrls1.pwrStateResidencyTicks::UNDEFINED 146261056907961                       # Cumulative time (in ticks) in various power states
system.mem_ctrls1.bytes_read::cpu.inst             64                       # Number of bytes read from this memory
system.mem_ctrls1.bytes_read::cpu.data             64                       # Number of bytes read from this memory
system.mem_ctrls1.bytes_read::switch_cpus.inst        20288                       # Number of bytes read from this memory
system.mem_ctrls1.bytes_read::switch_cpus.data    477335104                       # Number of bytes read from this memory
system.mem_ctrls1.bytes_read::switch_cpus_1.inst        13568                       # Number of bytes read from this memory
system.mem_ctrls1.bytes_read::switch_cpus_1.data    152084672                       # Number of bytes read from this memory
system.mem_ctrls1.bytes_read::total         629453760                       # Number of bytes read from this memory
system.mem_ctrls1.bytes_inst_read::cpu.inst           64                       # Number of instructions bytes read from this memory
system.mem_ctrls1.bytes_inst_read::switch_cpus.inst        20288                       # Number of instructions bytes read from this memory
system.mem_ctrls1.bytes_inst_read::switch_cpus_1.inst        13568                       # Number of instructions bytes read from this memory
system.mem_ctrls1.bytes_inst_read::total        33920                       # Number of instructions bytes read from this memory
system.mem_ctrls1.bytes_written::writebacks    318844928                       # Number of bytes written to this memory
system.mem_ctrls1.bytes_written::total      318844928                       # Number of bytes written to this memory
system.mem_ctrls1.num_reads::cpu.inst               1                       # Number of read requests responded to by this memory
system.mem_ctrls1.num_reads::cpu.data               1                       # Number of read requests responded to by this memory
system.mem_ctrls1.num_reads::switch_cpus.inst          317                       # Number of read requests responded to by this memory
system.mem_ctrls1.num_reads::switch_cpus.data      7458361                       # Number of read requests responded to by this memory
system.mem_ctrls1.num_reads::switch_cpus_1.inst          212                       # Number of read requests responded to by this memory
system.mem_ctrls1.num_reads::switch_cpus_1.data      2376323                       # Number of read requests responded to by this memory
system.mem_ctrls1.num_reads::total            9835215                       # Number of read requests responded to by this memory
system.mem_ctrls1.num_writes::writebacks      4981952                       # Number of write requests responded to by this memory
system.mem_ctrls1.num_writes::total           4981952                       # Number of write requests responded to by this memory
system.mem_ctrls1.bw_read::cpu.inst                23                       # Total read bandwidth from this memory (bytes/s)
system.mem_ctrls1.bw_read::cpu.data                23                       # Total read bandwidth from this memory (bytes/s)
system.mem_ctrls1.bw_read::switch_cpus.inst         7287                       # Total read bandwidth from this memory (bytes/s)
system.mem_ctrls1.bw_read::switch_cpus.data    171452351                       # Total read bandwidth from this memory (bytes/s)
system.mem_ctrls1.bw_read::switch_cpus_1.inst         4873                       # Total read bandwidth from this memory (bytes/s)
system.mem_ctrls1.bw_read::switch_cpus_1.data     54626769                       # Total read bandwidth from this memory (bytes/s)
system.mem_ctrls1.bw_read::total            226091326                       # Total read bandwidth from this memory (bytes/s)
system.mem_ctrls1.bw_inst_read::cpu.inst           23                       # Instruction read bandwidth from this memory (bytes/s)
system.mem_ctrls1.bw_inst_read::switch_cpus.inst         7287                       # Instruction read bandwidth from this memory (bytes/s)
system.mem_ctrls1.bw_inst_read::switch_cpus_1.inst         4873                       # Instruction read bandwidth from this memory (bytes/s)
system.mem_ctrls1.bw_inst_read::total           12184                       # Instruction read bandwidth from this memory (bytes/s)
system.mem_ctrls1.bw_write::writebacks      114524811                       # Write bandwidth from this memory (bytes/s)
system.mem_ctrls1.bw_write::total           114524811                       # Write bandwidth from this memory (bytes/s)
system.mem_ctrls1.bw_total::writebacks      114524811                       # Total bandwidth to/from this memory (bytes/s)
system.mem_ctrls1.bw_total::cpu.inst               23                       # Total bandwidth to/from this memory (bytes/s)
system.mem_ctrls1.bw_total::cpu.data               23                       # Total bandwidth to/from this memory (bytes/s)
system.mem_ctrls1.bw_total::switch_cpus.inst         7287                       # Total bandwidth to/from this memory (bytes/s)
system.mem_ctrls1.bw_total::switch_cpus.data    171452351                       # Total bandwidth to/from this memory (bytes/s)
system.mem_ctrls1.bw_total::switch_cpus_1.inst         4873                       # Total bandwidth to/from this memory (bytes/s)
system.mem_ctrls1.bw_total::switch_cpus_1.data     54626769                       # Total bandwidth to/from this memory (bytes/s)
system.mem_ctrls1.bw_total::total           340616137                       # Total bandwidth to/from this memory (bytes/s)
system.mem_ctrls1.readReqs                    9835215                       # Number of read requests accepted
system.mem_ctrls1.writeReqs                   4981952                       # Number of write requests accepted
system.mem_ctrls1.readBursts                  9835215                       # Number of DRAM read bursts, including those serviced by the write queue
system.mem_ctrls1.writeBursts                 4981952                       # Number of DRAM write bursts, including those merged in the write queue
system.mem_ctrls1.bytesReadDRAM             629452480                       # Total number of bytes read from DRAM
system.mem_ctrls1.bytesReadWrQ                   1280                       # Total number of bytes read from write queue
system.mem_ctrls1.bytesWritten              318843584                       # Total number of bytes written to DRAM
system.mem_ctrls1.bytesReadSys              629453760                       # Total read bytes from the system interface side
system.mem_ctrls1.bytesWrittenSys           318844928                       # Total written bytes from the system interface side
system.mem_ctrls1.servicedByWrQ                    20                       # Number of DRAM read bursts serviced by the write queue
system.mem_ctrls1.mergedWrBursts                    0                       # Number of DRAM write bursts merged with an existing one
system.mem_ctrls1.neitherReadNorWriteReqs            0                       # Number of requests that are neither read nor write
system.mem_ctrls1.perBankRdBursts::0           615660                       # Per bank write bursts
system.mem_ctrls1.perBankRdBursts::1           613671                       # Per bank write bursts
system.mem_ctrls1.perBankRdBursts::2           612606                       # Per bank write bursts
system.mem_ctrls1.perBankRdBursts::3           615605                       # Per bank write bursts
system.mem_ctrls1.perBankRdBursts::4           616724                       # Per bank write bursts
system.mem_ctrls1.perBankRdBursts::5           616265                       # Per bank write bursts
system.mem_ctrls1.perBankRdBursts::6           614848                       # Per bank write bursts
system.mem_ctrls1.perBankRdBursts::7           612530                       # Per bank write bursts
system.mem_ctrls1.perBankRdBursts::8           614340                       # Per bank write bursts
system.mem_ctrls1.perBankRdBursts::9           613500                       # Per bank write bursts
system.mem_ctrls1.perBankRdBursts::10          614710                       # Per bank write bursts
system.mem_ctrls1.perBankRdBursts::11          615520                       # Per bank write bursts
system.mem_ctrls1.perBankRdBursts::12          614239                       # Per bank write bursts
system.mem_ctrls1.perBankRdBursts::13          613895                       # Per bank write bursts
system.mem_ctrls1.perBankRdBursts::14          615231                       # Per bank write bursts
system.mem_ctrls1.perBankRdBursts::15          615851                       # Per bank write bursts
system.mem_ctrls1.perBankWrBursts::0           312495                       # Per bank write bursts
system.mem_ctrls1.perBankWrBursts::1           311392                       # Per bank write bursts
system.mem_ctrls1.perBankWrBursts::2           310583                       # Per bank write bursts
system.mem_ctrls1.perBankWrBursts::3           311038                       # Per bank write bursts
system.mem_ctrls1.perBankWrBursts::4           312038                       # Per bank write bursts
system.mem_ctrls1.perBankWrBursts::5           311997                       # Per bank write bursts
system.mem_ctrls1.perBankWrBursts::6           311703                       # Per bank write bursts
system.mem_ctrls1.perBankWrBursts::7           310029                       # Per bank write bursts
system.mem_ctrls1.perBankWrBursts::8           310444                       # Per bank write bursts
system.mem_ctrls1.perBankWrBursts::9           310744                       # Per bank write bursts
system.mem_ctrls1.perBankWrBursts::10          312171                       # Per bank write bursts
system.mem_ctrls1.perBankWrBursts::11          312360                       # Per bank write bursts
system.mem_ctrls1.perBankWrBursts::12          311147                       # Per bank write bursts
system.mem_ctrls1.perBankWrBursts::13          310210                       # Per bank write bursts
system.mem_ctrls1.perBankWrBursts::14          311447                       # Per bank write bursts
system.mem_ctrls1.perBankWrBursts::15          312133                       # Per bank write bursts
system.mem_ctrls1.numRdRetry                        0                       # Number of times read queue was full causing retry
system.mem_ctrls1.numWrRetry                        0                       # Number of times write queue was full causing retry
system.mem_ctrls1.totGap                 2784068273871                       # Total gap between requests
system.mem_ctrls1.readPktSize::0                    0                       # Read request sizes (log2)
system.mem_ctrls1.readPktSize::1                    0                       # Read request sizes (log2)
system.mem_ctrls1.readPktSize::2                    0                       # Read request sizes (log2)
system.mem_ctrls1.readPktSize::3                    0                       # Read request sizes (log2)
system.mem_ctrls1.readPktSize::4                    0                       # Read request sizes (log2)
system.mem_ctrls1.readPktSize::5                    0                       # Read request sizes (log2)
system.mem_ctrls1.readPktSize::6              9835215                       # Read request sizes (log2)
system.mem_ctrls1.writePktSize::0                   0                       # Write request sizes (log2)
system.mem_ctrls1.writePktSize::1                   0                       # Write request sizes (log2)
system.mem_ctrls1.writePktSize::2                   0                       # Write request sizes (log2)
system.mem_ctrls1.writePktSize::3                   0                       # Write request sizes (log2)
system.mem_ctrls1.writePktSize::4                   0                       # Write request sizes (log2)
system.mem_ctrls1.writePktSize::5                   0                       # Write request sizes (log2)
system.mem_ctrls1.writePktSize::6             4981952                       # Write request sizes (log2)
system.mem_ctrls1.rdQLenPdf::0                8981002                       # What read queue length does an incoming req see
system.mem_ctrls1.rdQLenPdf::1                 606882                       # What read queue length does an incoming req see
system.mem_ctrls1.rdQLenPdf::2                 209296                       # What read queue length does an incoming req see
system.mem_ctrls1.rdQLenPdf::3                  38014                       # What read queue length does an incoming req see
system.mem_ctrls1.rdQLenPdf::4                      1                       # What read queue length does an incoming req see
system.mem_ctrls1.rdQLenPdf::5                      0                       # What read queue length does an incoming req see
system.mem_ctrls1.rdQLenPdf::6                      0                       # What read queue length does an incoming req see
system.mem_ctrls1.rdQLenPdf::7                      0                       # What read queue length does an incoming req see
system.mem_ctrls1.rdQLenPdf::8                      0                       # What read queue length does an incoming req see
system.mem_ctrls1.rdQLenPdf::9                      0                       # What read queue length does an incoming req see
system.mem_ctrls1.rdQLenPdf::10                     0                       # What read queue length does an incoming req see
system.mem_ctrls1.rdQLenPdf::11                     0                       # What read queue length does an incoming req see
system.mem_ctrls1.rdQLenPdf::12                     0                       # What read queue length does an incoming req see
system.mem_ctrls1.rdQLenPdf::13                     0                       # What read queue length does an incoming req see
system.mem_ctrls1.rdQLenPdf::14                     0                       # What read queue length does an incoming req see
system.mem_ctrls1.rdQLenPdf::15                     0                       # What read queue length does an incoming req see
system.mem_ctrls1.rdQLenPdf::16                     0                       # What read queue length does an incoming req see
system.mem_ctrls1.rdQLenPdf::17                     0                       # What read queue length does an incoming req see
system.mem_ctrls1.rdQLenPdf::18                     0                       # What read queue length does an incoming req see
system.mem_ctrls1.rdQLenPdf::19                     0                       # What read queue length does an incoming req see
system.mem_ctrls1.rdQLenPdf::20                     0                       # What read queue length does an incoming req see
system.mem_ctrls1.rdQLenPdf::21                     0                       # What read queue length does an incoming req see
system.mem_ctrls1.rdQLenPdf::22                     0                       # What read queue length does an incoming req see
system.mem_ctrls1.rdQLenPdf::23                     0                       # What read queue length does an incoming req see
system.mem_ctrls1.rdQLenPdf::24                     0                       # What read queue length does an incoming req see
system.mem_ctrls1.rdQLenPdf::25                     0                       # What read queue length does an incoming req see
system.mem_ctrls1.rdQLenPdf::26                     0                       # What read queue length does an incoming req see
system.mem_ctrls1.rdQLenPdf::27                     0                       # What read queue length does an incoming req see
system.mem_ctrls1.rdQLenPdf::28                     0                       # What read queue length does an incoming req see
system.mem_ctrls1.rdQLenPdf::29                     0                       # What read queue length does an incoming req see
system.mem_ctrls1.rdQLenPdf::30                     0                       # What read queue length does an incoming req see
system.mem_ctrls1.rdQLenPdf::31                     0                       # What read queue length does an incoming req see
system.mem_ctrls1.wrQLenPdf::0                      2                       # What write queue length does an incoming req see
system.mem_ctrls1.wrQLenPdf::1                      2                       # What write queue length does an incoming req see
system.mem_ctrls1.wrQLenPdf::2                      2                       # What write queue length does an incoming req see
system.mem_ctrls1.wrQLenPdf::3                      2                       # What write queue length does an incoming req see
system.mem_ctrls1.wrQLenPdf::4                      2                       # What write queue length does an incoming req see
system.mem_ctrls1.wrQLenPdf::5                      2                       # What write queue length does an incoming req see
system.mem_ctrls1.wrQLenPdf::6                      2                       # What write queue length does an incoming req see
system.mem_ctrls1.wrQLenPdf::7                      2                       # What write queue length does an incoming req see
system.mem_ctrls1.wrQLenPdf::8                      2                       # What write queue length does an incoming req see
system.mem_ctrls1.wrQLenPdf::9                      2                       # What write queue length does an incoming req see
system.mem_ctrls1.wrQLenPdf::10                     2                       # What write queue length does an incoming req see
system.mem_ctrls1.wrQLenPdf::11                     2                       # What write queue length does an incoming req see
system.mem_ctrls1.wrQLenPdf::12                     2                       # What write queue length does an incoming req see
system.mem_ctrls1.wrQLenPdf::13                     2                       # What write queue length does an incoming req see
system.mem_ctrls1.wrQLenPdf::14                     2                       # What write queue length does an incoming req see
system.mem_ctrls1.wrQLenPdf::15                150621                       # What write queue length does an incoming req see
system.mem_ctrls1.wrQLenPdf::16                158610                       # What write queue length does an incoming req see
system.mem_ctrls1.wrQLenPdf::17                275697                       # What write queue length does an incoming req see
system.mem_ctrls1.wrQLenPdf::18                290335                       # What write queue length does an incoming req see
system.mem_ctrls1.wrQLenPdf::19                292838                       # What write queue length does an incoming req see
system.mem_ctrls1.wrQLenPdf::20                293019                       # What write queue length does an incoming req see
system.mem_ctrls1.wrQLenPdf::21                292879                       # What write queue length does an incoming req see
system.mem_ctrls1.wrQLenPdf::22                293149                       # What write queue length does an incoming req see
system.mem_ctrls1.wrQLenPdf::23                293289                       # What write queue length does an incoming req see
system.mem_ctrls1.wrQLenPdf::24                293094                       # What write queue length does an incoming req see
system.mem_ctrls1.wrQLenPdf::25                292888                       # What write queue length does an incoming req see
system.mem_ctrls1.wrQLenPdf::26                292827                       # What write queue length does an incoming req see
system.mem_ctrls1.wrQLenPdf::27                293050                       # What write queue length does an incoming req see
system.mem_ctrls1.wrQLenPdf::28                293911                       # What write queue length does an incoming req see
system.mem_ctrls1.wrQLenPdf::29                294658                       # What write queue length does an incoming req see
system.mem_ctrls1.wrQLenPdf::30                297428                       # What write queue length does an incoming req see
system.mem_ctrls1.wrQLenPdf::31                291837                       # What write queue length does an incoming req see
system.mem_ctrls1.wrQLenPdf::32                291261                       # What write queue length does an incoming req see
system.mem_ctrls1.wrQLenPdf::33                   436                       # What write queue length does an incoming req see
system.mem_ctrls1.wrQLenPdf::34                    69                       # What write queue length does an incoming req see
system.mem_ctrls1.wrQLenPdf::35                    19                       # What write queue length does an incoming req see
system.mem_ctrls1.wrQLenPdf::36                     6                       # What write queue length does an incoming req see
system.mem_ctrls1.wrQLenPdf::37                     1                       # What write queue length does an incoming req see
system.mem_ctrls1.wrQLenPdf::38                     0                       # What write queue length does an incoming req see
system.mem_ctrls1.wrQLenPdf::39                     0                       # What write queue length does an incoming req see
system.mem_ctrls1.wrQLenPdf::40                     0                       # What write queue length does an incoming req see
system.mem_ctrls1.wrQLenPdf::41                     0                       # What write queue length does an incoming req see
system.mem_ctrls1.wrQLenPdf::42                     0                       # What write queue length does an incoming req see
system.mem_ctrls1.wrQLenPdf::43                     0                       # What write queue length does an incoming req see
system.mem_ctrls1.wrQLenPdf::44                     0                       # What write queue length does an incoming req see
system.mem_ctrls1.wrQLenPdf::45                     0                       # What write queue length does an incoming req see
system.mem_ctrls1.wrQLenPdf::46                     0                       # What write queue length does an incoming req see
system.mem_ctrls1.wrQLenPdf::47                     0                       # What write queue length does an incoming req see
system.mem_ctrls1.wrQLenPdf::48                     0                       # What write queue length does an incoming req see
system.mem_ctrls1.wrQLenPdf::49                     0                       # What write queue length does an incoming req see
system.mem_ctrls1.wrQLenPdf::50                     0                       # What write queue length does an incoming req see
system.mem_ctrls1.wrQLenPdf::51                     0                       # What write queue length does an incoming req see
system.mem_ctrls1.wrQLenPdf::52                     0                       # What write queue length does an incoming req see
system.mem_ctrls1.wrQLenPdf::53                     0                       # What write queue length does an incoming req see
system.mem_ctrls1.wrQLenPdf::54                     0                       # What write queue length does an incoming req see
system.mem_ctrls1.wrQLenPdf::55                     0                       # What write queue length does an incoming req see
system.mem_ctrls1.wrQLenPdf::56                     0                       # What write queue length does an incoming req see
system.mem_ctrls1.wrQLenPdf::57                     0                       # What write queue length does an incoming req see
system.mem_ctrls1.wrQLenPdf::58                     0                       # What write queue length does an incoming req see
system.mem_ctrls1.wrQLenPdf::59                     0                       # What write queue length does an incoming req see
system.mem_ctrls1.wrQLenPdf::60                     0                       # What write queue length does an incoming req see
system.mem_ctrls1.wrQLenPdf::61                     0                       # What write queue length does an incoming req see
system.mem_ctrls1.wrQLenPdf::62                     0                       # What write queue length does an incoming req see
system.mem_ctrls1.wrQLenPdf::63                     0                       # What write queue length does an incoming req see
system.mem_ctrls1.bytesPerActivate::samples      9914809                       # Bytes accessed per row activation
system.mem_ctrls1.bytesPerActivate::mean    95.644346                       # Bytes accessed per row activation
system.mem_ctrls1.bytesPerActivate::gmean    83.973193                       # Bytes accessed per row activation
system.mem_ctrls1.bytesPerActivate::stdev    63.130840                       # Bytes accessed per row activation
system.mem_ctrls1.bytesPerActivate::0-127      6997696     70.58%     70.58% # Bytes accessed per row activation
system.mem_ctrls1.bytesPerActivate::128-255      2392634     24.13%     94.71% # Bytes accessed per row activation
system.mem_ctrls1.bytesPerActivate::256-383       444631      4.48%     99.19% # Bytes accessed per row activation
system.mem_ctrls1.bytesPerActivate::384-511        58548      0.59%     99.79% # Bytes accessed per row activation
system.mem_ctrls1.bytesPerActivate::512-639        14016      0.14%     99.93% # Bytes accessed per row activation
system.mem_ctrls1.bytesPerActivate::640-767         4091      0.04%     99.97% # Bytes accessed per row activation
system.mem_ctrls1.bytesPerActivate::768-895         1428      0.01%     99.98% # Bytes accessed per row activation
system.mem_ctrls1.bytesPerActivate::896-1023          579      0.01%     99.99% # Bytes accessed per row activation
system.mem_ctrls1.bytesPerActivate::1024-1151         1186      0.01%    100.00% # Bytes accessed per row activation
system.mem_ctrls1.bytesPerActivate::total      9914809                       # Bytes accessed per row activation
system.mem_ctrls1.rdPerTurnAround::samples       290844                       # Reads before turning the bus around for writes
system.mem_ctrls1.rdPerTurnAround::mean     33.816022                       # Reads before turning the bus around for writes
system.mem_ctrls1.rdPerTurnAround::stdev    52.565998                       # Reads before turning the bus around for writes
system.mem_ctrls1.rdPerTurnAround::0-1023       290841    100.00%    100.00% # Reads before turning the bus around for writes
system.mem_ctrls1.rdPerTurnAround::1024-2047            2      0.00%    100.00% # Reads before turning the bus around for writes
system.mem_ctrls1.rdPerTurnAround::27648-28671            1      0.00%    100.00% # Reads before turning the bus around for writes
system.mem_ctrls1.rdPerTurnAround::total       290844                       # Reads before turning the bus around for writes
system.mem_ctrls1.wrPerTurnAround::samples       290844                       # Writes before turning the bus around for reads
system.mem_ctrls1.wrPerTurnAround::mean     17.129220                       # Writes before turning the bus around for reads
system.mem_ctrls1.wrPerTurnAround::gmean    17.094814                       # Writes before turning the bus around for reads
system.mem_ctrls1.wrPerTurnAround::stdev     1.088181                       # Writes before turning the bus around for reads
system.mem_ctrls1.wrPerTurnAround::16          133579     45.93%     45.93% # Writes before turning the bus around for reads
system.mem_ctrls1.wrPerTurnAround::17            5245      1.80%     47.73% # Writes before turning the bus around for reads
system.mem_ctrls1.wrPerTurnAround::18          135350     46.54%     94.27% # Writes before turning the bus around for reads
system.mem_ctrls1.wrPerTurnAround::19           14611      5.02%     99.29% # Writes before turning the bus around for reads
system.mem_ctrls1.wrPerTurnAround::20            1775      0.61%     99.90% # Writes before turning the bus around for reads
system.mem_ctrls1.wrPerTurnAround::21             212      0.07%     99.98% # Writes before turning the bus around for reads
system.mem_ctrls1.wrPerTurnAround::22              40      0.01%     99.99% # Writes before turning the bus around for reads
system.mem_ctrls1.wrPerTurnAround::23              19      0.01%    100.00% # Writes before turning the bus around for reads
system.mem_ctrls1.wrPerTurnAround::24               6      0.00%    100.00% # Writes before turning the bus around for reads
system.mem_ctrls1.wrPerTurnAround::25               4      0.00%    100.00% # Writes before turning the bus around for reads
system.mem_ctrls1.wrPerTurnAround::26               1      0.00%    100.00% # Writes before turning the bus around for reads
system.mem_ctrls1.wrPerTurnAround::27               2      0.00%    100.00% # Writes before turning the bus around for reads
system.mem_ctrls1.wrPerTurnAround::total       290844                       # Writes before turning the bus around for reads
system.mem_ctrls1.totQLat                270923074137                       # Total ticks spent queuing
system.mem_ctrls1.totMemAccLat           455332980387                       # Total ticks spent from burst creation until serviced by the DRAM
system.mem_ctrls1.totBusLat               49175975000                       # Total ticks spent in databus transfers
system.mem_ctrls1.avgQLat                    27546.28                       # Average queueing delay per DRAM burst
system.mem_ctrls1.avgBusLat                   5000.00                       # Average bus latency per DRAM burst
system.mem_ctrls1.avgMemAccLat               46296.28                       # Average memory access latency per DRAM burst
system.mem_ctrls1.avgRdBW                      226.09                       # Average DRAM read bandwidth in MiByte/s
system.mem_ctrls1.avgWrBW                      114.52                       # Average achieved write bandwidth in MiByte/s
system.mem_ctrls1.avgRdBWSys                   226.09                       # Average system read bandwidth in MiByte/s
system.mem_ctrls1.avgWrBWSys                   114.52                       # Average system write bandwidth in MiByte/s
system.mem_ctrls1.peakBW                     12800.00                       # Theoretical peak bandwidth in MiByte/s
system.mem_ctrls1.busUtil                        2.66                       # Data bus utilization in percentage
system.mem_ctrls1.busUtilRead                    1.77                       # Data bus utilization in percentage for reads
system.mem_ctrls1.busUtilWrite                   0.89                       # Data bus utilization in percentage for writes
system.mem_ctrls1.avgRdQLen                      1.05                       # Average read queue length when enqueuing
system.mem_ctrls1.avgWrQLen                     24.85                       # Average write queue length when enqueuing
system.mem_ctrls1.readRowHits                 3559324                       # Number of row buffer hits during reads
system.mem_ctrls1.writeRowHits                1342985                       # Number of row buffer hits during writes
system.mem_ctrls1.readRowHitRate                36.19                       # Row buffer hit rate for reads
system.mem_ctrls1.writeRowHitRate               26.96                       # Row buffer hit rate for writes
system.mem_ctrls1.avgGap                    187894.78                       # Average gap between requests
system.mem_ctrls1.pageHitRate                   33.09                       # Row buffer hit rate, read and write combined
system.mem_ctrls1_0.actEnergy             35387268000                       # Energy for activate commands per rank (pJ)
system.mem_ctrls1_0.preEnergy             18808767615                       # Energy for precharge commands per rank (pJ)
system.mem_ctrls1_0.readEnergy            35113870260                       # Energy for read commands per rank (pJ)
system.mem_ctrls1_0.writeEnergy           13004455500                       # Energy for write commands per rank (pJ)
system.mem_ctrls1_0.refreshEnergy        219104408640.000061                       # Energy for refresh commands per rank (pJ)
system.mem_ctrls1_0.actBackEnergy        209628141900                       # Energy for active background per rank (pJ)
system.mem_ctrls1_0.preBackEnergy          5714035200                       # Energy for precharge background per rank (pJ)
system.mem_ctrls1_0.actPowerDownEnergy   941984250360                       # Energy for active power-down per rank (pJ)
system.mem_ctrls1_0.prePowerDownEnergy    76786099200                       # Energy for precharge power-down per rank (pJ)
system.mem_ctrls1_0.selfRefreshEnergy     13195462305                       # Energy for self refresh per rank (pJ)
system.mem_ctrls1_0.totalEnergy          1568744355060                       # Total energy per rank (pJ)
system.mem_ctrls1_0.averagePower           563.471875                       # Core power per rank (mW)
system.mem_ctrls1_0.totalIdleTime        2309443143903                       # Total Idle time Per DRAM Rank
system.mem_ctrls1_0.memoryStateTime::IDLE   3363407056                       # Time in different power states
system.mem_ctrls1_0.memoryStateTime::REF  92714762000                       # Time in different power states
system.mem_ctrls1_0.memoryStateTime::SREF  43719620834                       # Time in different power states
system.mem_ctrls1_0.memoryStateTime::PRE_PDN 199960213908                       # Time in different power states
system.mem_ctrls1_0.memoryStateTime::ACT 378547073803                       # Time in different power states
system.mem_ctrls1_0.memoryStateTime::ACT_PDN 2065763513286                       # Time in different power states
system.mem_ctrls1_1.actEnergy             35404525380                       # Energy for activate commands per rank (pJ)
system.mem_ctrls1_1.preEnergy             18817932540                       # Energy for precharge commands per rank (pJ)
system.mem_ctrls1_1.readEnergy            35109422040                       # Energy for read commands per rank (pJ)
system.mem_ctrls1_1.writeEnergy           13001224320                       # Energy for write commands per rank (pJ)
system.mem_ctrls1_1.refreshEnergy        218764512720.000061                       # Energy for refresh commands per rank (pJ)
system.mem_ctrls1_1.actBackEnergy        209044003050                       # Energy for active background per rank (pJ)
system.mem_ctrls1_1.preBackEnergy          5667390720                       # Energy for precharge background per rank (pJ)
system.mem_ctrls1_1.actPowerDownEnergy   944254673790                       # Energy for active power-down per rank (pJ)
system.mem_ctrls1_1.prePowerDownEnergy    74935221120                       # Energy for precharge power-down per rank (pJ)
system.mem_ctrls1_1.selfRefreshEnergy     13261119825                       # Energy for self refresh per rank (pJ)
system.mem_ctrls1_1.totalEnergy          1568279838405                       # Total energy per rank (pJ)
system.mem_ctrls1_1.averagePower           563.305024                       # Core power per rank (mW)
system.mem_ctrls1_1.totalIdleTime        2310847196233                       # Total Idle time Per DRAM Rank
system.mem_ctrls1_1.memoryStateTime::IDLE   3242908580                       # Time in different power states
system.mem_ctrls1_1.memoryStateTime::REF  92568672000                       # Time in different power states
system.mem_ctrls1_1.memoryStateTime::SREF  44958123045                       # Time in different power states
system.mem_ctrls1_1.memoryStateTime::PRE_PDN 195139598458                       # Time in different power states
system.mem_ctrls1_1.memoryStateTime::ACT 377409652011                       # Time in different power states
system.mem_ctrls1_1.memoryStateTime::ACT_PDN 2070749636793                       # Time in different power states
system.pwrStateResidencyTicks::UNDEFINED 146261056907961                       # Cumulative time (in ticks) in various power states
system.cpu.branchPred.lookups                       0                       # Number of BP lookups
system.cpu.branchPred.condPredicted                 0                       # Number of conditional branches predicted
system.cpu.branchPred.condIncorrect                 0                       # Number of conditional branches incorrect
system.cpu.branchPred.BTBLookups                    0                       # Number of BTB lookups
system.cpu.branchPred.BTBHits                       0                       # Number of BTB hits
system.cpu.branchPred.BTBCorrect                    0                       # Number of correct BTB predictions (this stat may not work properly.
system.cpu.branchPred.BTBHitPct                   nan                       # BTB Hit Percentage
system.cpu.branchPred.usedRAS                       0                       # Number of times the RAS was used to get a target.
system.cpu.branchPred.RASInCorrect                  0                       # Number of incorrect RAS predictions.
system.cpu.branchPred.indirectLookups               0                       # Number of indirect predictor lookups.
system.cpu.branchPred.indirectHits                  0                       # Number of indirect target hits.
system.cpu.branchPred.indirectMisses                0                       # Number of indirect misses.
system.cpu.branchPredindirectMispredicted            0                       # Number of mispredicted indirect branches.
system.cpu_voltage_domain.voltage                   1                       # Voltage in Volts
system.cpu_clk_domain.clock                       333                       # Clock period in ticks
system.cpu.dtb.fetch_hits                           0                       # ITB hits
system.cpu.dtb.fetch_misses                         0                       # ITB misses
system.cpu.dtb.fetch_acv                            0                       # ITB acv
system.cpu.dtb.fetch_accesses                       0                       # ITB accesses
system.cpu.dtb.read_hits                           13                       # DTB read hits
system.cpu.dtb.read_misses                          0                       # DTB read misses
system.cpu.dtb.read_acv                             0                       # DTB read access violations
system.cpu.dtb.read_accesses                       13                       # DTB read accesses
system.cpu.dtb.write_hits                           0                       # DTB write hits
system.cpu.dtb.write_misses                         0                       # DTB write misses
system.cpu.dtb.write_acv                            0                       # DTB write access violations
system.cpu.dtb.write_accesses                       0                       # DTB write accesses
system.cpu.dtb.data_hits                           13                       # DTB hits
system.cpu.dtb.data_misses                          0                       # DTB misses
system.cpu.dtb.data_acv                             0                       # DTB access violations
system.cpu.dtb.data_accesses                       13                       # DTB accesses
system.cpu.itb.fetch_hits                           4                       # ITB hits
system.cpu.itb.fetch_misses                         0                       # ITB misses
system.cpu.itb.fetch_acv                            0                       # ITB acv
system.cpu.itb.fetch_accesses                       4                       # ITB accesses
system.cpu.itb.read_hits                            0                       # DTB read hits
system.cpu.itb.read_misses                          0                       # DTB read misses
system.cpu.itb.read_acv                             0                       # DTB read access violations
system.cpu.itb.read_accesses                        0                       # DTB read accesses
system.cpu.itb.write_hits                           0                       # DTB write hits
system.cpu.itb.write_misses                         0                       # DTB write misses
system.cpu.itb.write_acv                            0                       # DTB write access violations
system.cpu.itb.write_accesses                       0                       # DTB write accesses
system.cpu.itb.data_hits                            0                       # DTB hits
system.cpu.itb.data_misses                          0                       # DTB misses
system.cpu.itb.data_acv                             0                       # DTB access violations
system.cpu.itb.data_accesses                        0                       # DTB accesses
system.cpu.workload.num_syscalls                    0                       # Number of system calls
system.cpu.pwrStateResidencyTicks::ON    2784068590887                       # Cumulative time (in ticks) in various power states
system.cpu.numCycles                              582                       # number of cpu cycles simulated
system.cpu.numWorkItemsStarted                      0                       # number of work items this cpu started
system.cpu.numWorkItemsCompleted                    0                       # number of work items this cpu completed
system.cpu.fetch.icacheStallCycles                 49                       # Number of cycles fetch is stalled on an Icache miss
system.cpu.fetch.Insts                             23                       # Number of instructions fetch has processed
system.cpu.fetch.Cycles                             3                       # Number of cycles fetch has run and was not squashing or blocked
system.cpu.fetch.SquashCycles                       3                       # Number of cycles fetch has spent squashing
system.cpu.fetch.PendingDrainCycles                 7                       # Number of cycles fetch has spent waiting on pipes to drain
system.cpu.fetch.CacheLines                         4                       # Number of cache lines fetched
system.cpu.fetch.IcacheSquashes                     2                       # Number of outstanding Icache misses that were squashed
system.cpu.fetch.rateDist::samples                 60                       # Number of instructions fetched each cycle (Total)
system.cpu.fetch.rateDist::mean              0.383333                       # Number of instructions fetched each cycle (Total)
[...]
system.switch_cpus_1.iq.fu_busy_rate         0.047732                       # FU busy rate (busy events/executed inst)
system.switch_cpus_1.iq.int_inst_queue_reads   1086443318                       # Number of integer instruction queue reads
system.switch_cpus_1.iq.int_inst_queue_writes    137895202                       # Number of integer instruction queue writes
system.switch_cpus_1.iq.int_inst_queue_wakeup_accesses    130343501                       # Number of integer instruction queue wakeup accesses
system.switch_cpus_1.iq.fp_inst_queue_reads    613708767                       # Number of floating instruction queue reads
system.switch_cpus_1.iq.fp_inst_queue_writes    313383103                       # Number of floating instruction queue writes
system.switch_cpus_1.iq.fp_inst_queue_wakeup_accesses    286459706                       # Number of floating instruction queue wakeup accesses
system.switch_cpus_1.iq.int_alu_accesses    142134378                       # Number of integer alu accesses
system.switch_cpus_1.iq.fp_alu_accesses     313308436                       # Number of floating point alu accesses
system.switch_cpus_1.iew.lsq.thread0.forwLoads       634335                       # Number of loads that had data forwarded from stores
system.switch_cpus_1.iew.lsq.thread0.invAddrLoads            0                       # Number of loads ignored due to an invalid address
system.switch_cpus_1.iew.lsq.thread0.squashedLoads     10520329                       # Number of loads squashed
system.switch_cpus_1.iew.lsq.thread0.ignoredResponses          183                       # Number of memory responses ignored because the instruction is squashed
system.switch_cpus_1.iew.lsq.thread0.memOrderViolation         1289                       # Number of memory ordering violations
system.switch_cpus_1.iew.lsq.thread0.squashedStores      1175341                       # Number of stores squashed
system.switch_cpus_1.iew.lsq.thread0.invAddrSwpfs            0                       # Number of software prefetches ignored due to an invalid address
system.switch_cpus_1.iew.lsq.thread0.blockedLoads            0                       # Number of blocked loads due to partial load-store forwarding
system.switch_cpus_1.iew.lsq.thread0.rescheduledLoads            0                       # Number of loads that were rescheduled
system.switch_cpus_1.iew.lsq.thread0.cacheBlocked     16621329                       # Number of times an access to memory failed due to the cache being blocked
system.switch_cpus_1.iew.iewIdleCycles              0                       # Number of cycles IEW is idle
system.switch_cpus_1.iew.iewSquashCycles       339616                       # Number of cycles IEW is squashing
system.switch_cpus_1.iew.iewBlockCycles      10546312                       # Number of cycles IEW is blocking
system.switch_cpus_1.iew.iewUnblockCycles    239923381                       # Number of cycles IEW is unblocking
system.switch_cpus_1.iew.iewDispatchedInsts    425842070                       # Number of instructions dispatched to IQ
system.switch_cpus_1.iew.iewDispSquashedInsts         3155                       # Number of squashed instructions skipped by dispatch
system.switch_cpus_1.iew.iewDispLoadInsts    174600554                       # Number of dispatched load instructions
system.switch_cpus_1.iew.iewDispStoreInsts     21289627                       # Number of dispatched store instructions
system.switch_cpus_1.iew.iewDispNonSpecInsts            0                       # Number of dispatched non-speculative instructions
system.switch_cpus_1.iew.iewIQFullEvents        39150                       # Number of times the IQ has become full, causing a stall
system.switch_cpus_1.iew.iewLSQFullEvents    239740872                       # Number of times the LSQ has become full, causing a stall
system.switch_cpus_1.iew.memOrderViolationEvents         1289                       # Number of memory order violations
system.switch_cpus_1.iew.predictedTakenIncorrect        12374                       # Number of branches that were predicted taken incorrectly
system.switch_cpus_1.iew.predictedNotTakenIncorrect          486                       # Number of branches that were predicted not taken incorrectly
system.switch_cpus_1.iew.branchMispredicts        12860                       # Number of branch mispredicts detected at execute
system.switch_cpus_1.iew.iewExecutedInsts    434572906                       # Number of executed instructions
system.switch_cpus_1.iew.iewExecLoadInsts    190124785                       # Number of load instructions executed
system.switch_cpus_1.iew.iewExecSquashedInsts       121229                       # Number of squashed instructions skipped in execute
system.switch_cpus_1.iew.exec_swp                   0                       # number of swp insts executed
system.switch_cpus_1.iew.exec_nop              203548                       # number of nop insts executed
system.switch_cpus_1.iew.exec_refs          210379554                       # number of memory reference insts executed
system.switch_cpus_1.iew.exec_branches        3754562                       # Number of branches executed
system.switch_cpus_1.iew.exec_stores         20254769                       # Number of stores executed
system.switch_cpus_1.iew.exec_rate           0.536684                       # Inst execution rate
system.switch_cpus_1.iew.wb_sent            417949454                       # cumulative count of insts sent to commit
system.switch_cpus_1.iew.wb_count           416803207                       # cumulative count of insts written-back
system.switch_cpus_1.iew.wb_producers       277089715                       # num instructions producing a value
system.switch_cpus_1.iew.wb_consumers       289868680                       # num instructions consuming a value
system.switch_cpus_1.iew.wb_rate             0.514739                       # insts written-back per cycle
system.switch_cpus_1.iew.wb_fanout           0.955915                       # average fanout of values written-back
system.switch_cpus_1.commit.commitSquashedInsts     24420349                       # The number of squashed insts skipped by commit
system.switch_cpus_1.commit.branchMispredicts        12808                       # The number of times a branch was mispredicted
system.switch_cpus_1.commit.committed_per_cycle::samples    806446956                       # Number of insts commited each cycle
system.switch_cpus_1.commit.committed_per_cycle::mean     0.496254                       # Number of insts commited each cycle
system.switch_cpus_1.commit.committed_per_cycle::stdev     1.749839                       # Number of insts commited each cycle
system.switch_cpus_1.commit.committed_per_cycle::underflows            0      0.00%      0.00% # Number of insts commited each cycle
system.switch_cpus_1.commit.committed_per_cycle::0    719355374     89.20%     89.20% # Number of insts commited each cycle
system.switch_cpus_1.commit.committed_per_cycle::1     26869845      3.33%     92.53% # Number of insts commited each cycle
system.switch_cpus_1.commit.committed_per_cycle::2      7248361      0.90%     93.43% # Number of insts commited each cycle
system.switch_cpus_1.commit.committed_per_cycle::3      5694442      0.71%     94.14% # Number of insts commited each cycle
system.switch_cpus_1.commit.committed_per_cycle::4      4835374      0.60%     94.74% # Number of insts commited each cycle
system.switch_cpus_1.commit.committed_per_cycle::5      3002575      0.37%     95.11% # Number of insts commited each cycle
system.switch_cpus_1.commit.committed_per_cycle::6      3032101      0.38%     95.49% # Number of insts commited each cycle
system.switch_cpus_1.commit.committed_per_cycle::7      2065092      0.26%     95.74% # Number of insts commited each cycle
system.switch_cpus_1.commit.committed_per_cycle::8     34343792      4.26%    100.00% # Number of insts commited each cycle
system.switch_cpus_1.commit.committed_per_cycle::overflows            0      0.00%    100.00% # Number of insts commited each cycle
system.switch_cpus_1.commit.committed_per_cycle::min_value            0                       # Number of insts commited each cycle
system.switch_cpus_1.commit.committed_per_cycle::max_value            8                       # Number of insts commited each cycle
system.switch_cpus_1.commit.committed_per_cycle::total    806446956                       # Number of insts commited each cycle
system.switch_cpus_1.commit.committedInsts    400202850                       # Number of instructions committed
system.switch_cpus_1.commit.committedOps    400202850                       # Number of ops (including micro ops) committed
system.switch_cpus_1.commit.swp_count               0                       # Number of s/w prefetches committed
system.switch_cpus_1.commit.refs            184194497                       # Number of memory references committed
system.switch_cpus_1.commit.loads           164080212                       # Number of loads committed
system.switch_cpus_1.commit.membars                 0                       # Number of memory barriers committed
system.switch_cpus_1.commit.branches          3523593                       # Number of branches committed
system.switch_cpus_1.commit.fp_insts        276673413                       # Number of committed floating point instructions.
system.switch_cpus_1.commit.int_insts       263415436                       # Number of committed integer instructions.
system.switch_cpus_1.commit.function_calls            0                       # Number of function calls committed.
system.switch_cpus_1.commit.op_class_0::No_OpClass       202850      0.05%      0.05% # Class of committed instruction
system.switch_cpus_1.commit.op_class_0::IntAlu     79197973     19.79%     19.84% # Class of committed instruction
system.switch_cpus_1.commit.op_class_0::IntMult        99179      0.02%     19.86% # Class of committed instruction
system.switch_cpus_1.commit.op_class_0::IntDiv            0      0.00%     19.86% # Class of committed instruction
system.switch_cpus_1.commit.op_class_0::FloatAdd     54603340     13.64%     33.51% # Class of committed instruction
system.switch_cpus_1.commit.op_class_0::FloatCmp            0      0.00%     33.51% # Class of committed instruction
system.switch_cpus_1.commit.op_class_0::FloatCvt            0      0.00%     33.51% # Class of committed instruction
system.switch_cpus_1.commit.op_class_0::FloatMult     81905011     20.47%     53.97% # Class of committed instruction
system.switch_cpus_1.commit.op_class_0::FloatMultAcc            0      0.00%     53.97% # Class of committed instruction
system.switch_cpus_1.commit.op_class_0::FloatDiv            0      0.00%     53.97% # Class of committed instruction
system.switch_cpus_1.commit.op_class_0::FloatMisc            0      0.00%     53.97% # Class of committed instruction
system.switch_cpus_1.commit.op_class_0::FloatSqrt            0      0.00%     53.97% # Class of committed instruction
system.switch_cpus_1.commit.op_class_0::SimdAdd            0      0.00%     53.97% # Class of committed instruction
system.switch_cpus_1.commit.op_class_0::SimdAddAcc            0      0.00%     53.97% # Class of committed instruction
system.switch_cpus_1.commit.op_class_0::SimdAlu            0      0.00%     53.97% # Class of committed instruction
system.switch_cpus_1.commit.op_class_0::SimdCmp            0      0.00%     53.97% # Class of committed instruction
system.switch_cpus_1.commit.op_class_0::SimdCvt            0      0.00%     53.97% # Class of committed instruction
system.switch_cpus_1.commit.op_class_0::SimdMisc            0      0.00%     53.97% # Class of committed instruction
system.switch_cpus_1.commit.op_class_0::SimdMult            0      0.00%     53.97% # Class of committed instruction
system.switch_cpus_1.commit.op_class_0::SimdMultAcc            0      0.00%     53.97% # Class of committed instruction
system.switch_cpus_1.commit.op_class_0::SimdShift            0      0.00%     53.97% # Class of committed instruction
system.switch_cpus_1.commit.op_class_0::SimdShiftAcc            0      0.00%     53.97% # Class of committed instruction
system.switch_cpus_1.commit.op_class_0::SimdSqrt            0      0.00%     53.97% # Class of committed instruction
system.switch_cpus_1.commit.op_class_0::SimdFloatAdd            0      0.00%     53.97% # Class of committed instruction
system.switch_cpus_1.commit.op_class_0::SimdFloatAlu            0      0.00%     53.97% # Class of committed instruction
system.switch_cpus_1.commit.op_class_0::SimdFloatCmp            0      0.00%     53.97% # Class of committed instruction
system.switch_cpus_1.commit.op_class_0::SimdFloatCvt            0      0.00%     53.97% # Class of committed instruction
system.switch_cpus_1.commit.op_class_0::SimdFloatDiv            0      0.00%     53.97% # Class of committed instruction
system.switch_cpus_1.commit.op_class_0::SimdFloatMisc            0      0.00%     53.97% # Class of committed instruction
system.switch_cpus_1.commit.op_class_0::SimdFloatMult            0      0.00%     53.97% # Class of committed instruction
system.switch_cpus_1.commit.op_class_0::SimdFloatMultAcc            0      0.00%     53.97% # Class of committed instruction
system.switch_cpus_1.commit.op_class_0::SimdFloatSqrt            0      0.00%     53.97% # Class of committed instruction
system.switch_cpus_1.commit.op_class_0::MemRead     42116263     10.52%     64.50% # Class of committed instruction
system.switch_cpus_1.commit.op_class_0::MemWrite      1913172      0.48%     64.98% # Class of committed instruction
system.switch_cpus_1.commit.op_class_0::FloatMemRead    121963949     30.48%     95.45% # Class of committed instruction
system.switch_cpus_1.commit.op_class_0::FloatMemWrite     18201113      4.55%    100.00% # Class of committed instruction
system.switch_cpus_1.commit.op_class_0::IprAccess            0      0.00%    100.00% # Class of committed instruction
system.switch_cpus_1.commit.op_class_0::InstPrefetch            0      0.00%    100.00% # Class of committed instruction
system.switch_cpus_1.commit.op_class_0::total    400202850                       # Class of committed instruction
system.switch_cpus_1.commit.bw_lim_events     34343792                       # number cycles where commit BW limit reached
system.switch_cpus_1.rob.rob_reads         1192490898                       # The number of ROB reads
system.switch_cpus_1.rob.rob_writes         852447861                       # The number of ROB writes
system.switch_cpus_1.timesIdled                   798                       # Number of times that the entire CPU went into an idle state and unscheduled itself
system.switch_cpus_1.idleCycles                 88179                       # Total number of cycles that the CPU has spent unscheduled due to idling
system.switch_cpus_1.committedInsts         400000000                       # Number of Instructions Simulated
system.switch_cpus_1.committedOps           400000000                       # Number of Ops (including micro ops) Simulated
system.switch_cpus_1.cpi                     2.024341                       # CPI: Cycles Per Instruction
system.switch_cpus_1.cpi_total               2.024341                       # CPI: Total CPI of All Threads
system.switch_cpus_1.ipc                     0.493988                       # IPC: Instructions Per Cycle
system.switch_cpus_1.ipc_total               0.493988                       # IPC: Total IPC of All Threads
system.switch_cpus_1.int_regfile_reads      331615248                       # number of integer regfile reads
system.switch_cpus_1.int_regfile_writes     124672372                       # number of integer regfile writes
system.switch_cpus_1.fp_regfile_reads       298214721                       # number of floating regfile reads
system.switch_cpus_1.fp_regfile_writes      268137110                       # number of floating regfile writes
system.tol3bus.snoop_filter.tot_requests     43474698                       # Total number of requests made to the snoop filter.
system.tol3bus.snoop_filter.hit_single_requests     21735051                       # Number of requests hitting in the snoop filter with a single holder of the requested data.
system.tol3bus.snoop_filter.hit_multi_requests            0                       # Number of requests hitting in the snoop filter with multiple (>1) holders of the requested data.
system.tol3bus.snoop_filter.tot_snoops        1418975                       # Total number of snoops made to the snoop filter.
system.tol3bus.snoop_filter.hit_single_snoops      1418975                       # Number of snoops hitting in the snoop filter with a single holder of the requested data.
system.tol3bus.snoop_filter.hit_multi_snoops            0                       # Number of snoops hitting in the snoop filter with multiple (>1) holders of the requested data.
system.tol3bus.pwrStateResidencyTicks::UNDEFINED 146261056907961                       # Cumulative time (in ticks) in various power states
system.tol3bus.trans_dist::ReadResp          21601722                       # Transaction distribution
system.tol3bus.trans_dist::WritebackDirty     20196207                       # Transaction distribution
system.tol3bus.trans_dist::CleanEvict        21983028                       # Transaction distribution
system.tol3bus.trans_dist::UpgradeReq               6                       # Transaction distribution
system.tol3bus.trans_dist::UpgradeResp              6                       # Transaction distribution
system.tol3bus.trans_dist::ReadExReq           137925                       # Transaction distribution
system.tol3bus.trans_dist::ReadExResp          137925                       # Transaction distribution
system.tol3bus.trans_dist::ReadSharedReq     21601722                       # Transaction distribution
system.tol3bus.pkt_count_system.cpu.l2.mem_side::system.l3.cpu_side     65214351                       # Packet count per connected master and slave (bytes)
system.tol3bus.pkt_size_system.cpu.l2.mem_side::system.l3.cpu_side   2046202560                       # Cumulative packet size per connected master and slave (bytes)
system.tol3bus.snoops                        20444190                       # Total snoops (count)
system.tol3bus.snoopTraffic                 637692096                       # Total snoop traffic (bytes)
system.tol3bus.snoop_fanout::samples         42183843                       # Request fanout histogram
system.tol3bus.snoop_fanout::mean            0.033638                       # Request fanout histogram
system.tol3bus.snoop_fanout::stdev           0.180295                       # Request fanout histogram
system.tol3bus.snoop_fanout::underflows             0      0.00%      0.00% # Request fanout histogram
system.tol3bus.snoop_fanout::0               40764868     96.64%     96.64% # Request fanout histogram
system.tol3bus.snoop_fanout::1                1418975      3.36%    100.00% # Request fanout histogram
system.tol3bus.snoop_fanout::overflows              0      0.00%    100.00% # Request fanout histogram
system.tol3bus.snoop_fanout::min_value              0                       # Request fanout histogram
system.tol3bus.snoop_fanout::max_value              1                       # Request fanout histogram
system.tol3bus.snoop_fanout::total           42183843                       # Request fanout histogram
system.tol3bus.reqLayer0.occupancy        17884419678                       # Layer occupancy (ticks)
system.tol3bus.reqLayer0.utilization              0.6                       # Layer utilization (%)
system.tol3bus.respLayer0.occupancy       14478606900                       # Layer occupancy (ticks)
system.tol3bus.respLayer0.utilization             0.5                       # Layer utilization (%)

---------- End Simulation Statistics   ----------
