
---------- Begin Simulation Statistics ----------
sim_seconds                                  2.012767                       # Number of seconds simulated
sim_ticks                                2012766584634                       # Number of ticks simulated
final_tick                               75282920385336                       # Number of ticks from beginning of simulation (restored from checkpoints and never reset)
sim_freq                                 1000000000000                       # Frequency of simulated ticks
host_inst_rate                                 382748                       # Simulator instruction rate (inst/s)
host_op_rate                                   382748                       # Simulator op (including micro ops) rate (op/s)
host_tick_rate                              641985389                       # Simulator tick rate (ticks/s)
host_mem_usage                                2404656                       # Number of bytes of host memory used
host_seconds                                  3135.22                       # Real time elapsed on the host
sim_insts                                  1200000010                       # Number of instructions simulated
sim_ops                                    1200000010                       # Number of ops (including micro ops) simulated
system.voltage_domain.voltage                       1                       # Voltage in Volts
system.clk_domain.clock                          1000                       # Clock period in ticks
system.mem_ctrls0.pwrStateResidencyTicks::UNDEFINED 75282920385336                       # Cumulative time (in ticks) in various power states
system.mem_ctrls0.bytes_read::cpu.inst            128                       # Number of bytes read from this memory
system.mem_ctrls0.bytes_read::cpu.data            192                       # Number of bytes read from this memory
system.mem_ctrls0.bytes_read::switch_cpus.inst        43968                       # Number of bytes read from this memory
system.mem_ctrls0.bytes_read::switch_cpus.data    234238400                       # Number of bytes read from this memory
system.mem_ctrls0.bytes_read::switch_cpus_1.inst         3456                       # Number of bytes read from this memory
system.mem_ctrls0.bytes_read::switch_cpus_1.data     41232128                       # Number of bytes read from this memory
system.mem_ctrls0.bytes_read::total         275518272                       # Number of bytes read from this memory
system.mem_ctrls0.bytes_inst_read::cpu.inst          128                       # Number of instructions bytes read from this memory
system.mem_ctrls0.bytes_inst_read::switch_cpus.inst        43968                       # Number of instructions bytes read from this memory
system.mem_ctrls0.bytes_inst_read::switch_cpus_1.inst         3456                       # Number of instructions bytes read from this memory
system.mem_ctrls0.bytes_inst_read::total        47552                       # Number of instructions bytes read from this memory
system.mem_ctrls0.bytes_written::writebacks     87419392                       # Number of bytes written to this memory
system.mem_ctrls0.bytes_written::total       87419392                       # Number of bytes written to this memory
system.mem_ctrls0.num_reads::cpu.inst               2                       # Number of read requests responded to by this memory
system.mem_ctrls0.num_reads::cpu.data               3                       # Number of read requests responded to by this memory
system.mem_ctrls0.num_reads::switch_cpus.inst          687                       # Number of read requests responded to by this memory
system.mem_ctrls0.num_reads::switch_cpus.data      3659975                       # Number of read requests responded to by this memory
system.mem_ctrls0.num_reads::switch_cpus_1.inst           54                       # Number of read requests responded to by this memory
system.mem_ctrls0.num_reads::switch_cpus_1.data       644252                       # Number of read requests responded to by this memory
system.mem_ctrls0.num_reads::total            4304973                       # Number of read requests responded to by this memory
system.mem_ctrls0.num_writes::writebacks      1365928                       # Number of write requests responded to by this memory
system.mem_ctrls0.num_writes::total           1365928                       # Number of write requests responded to by this memory
system.mem_ctrls0.bw_read::cpu.inst                64                       # Total read bandwidth from this memory (bytes/s)
system.mem_ctrls0.bw_read::cpu.data                95                       # Total read bandwidth from this memory (bytes/s)
system.mem_ctrls0.bw_read::switch_cpus.inst        21845                       # Total read bandwidth from this memory (bytes/s)
system.mem_ctrls0.bw_read::switch_cpus.data    116376336                       # Total read bandwidth from this memory (bytes/s)
system.mem_ctrls0.bw_read::switch_cpus_1.inst         1717                       # Total read bandwidth from this memory (bytes/s)
system.mem_ctrls0.bw_read::switch_cpus_1.data     20485300                       # Total read bandwidth from this memory (bytes/s)
system.mem_ctrls0.bw_read::total            136885357                       # Total read bandwidth from this memory (bytes/s)
system.mem_ctrls0.bw_inst_read::cpu.inst           64                       # Instruction read bandwidth from this memory (bytes/s)
system.mem_ctrls0.bw_inst_read::switch_cpus.inst        21845                       # Instruction read bandwidth from this memory (bytes/s)
system.mem_ctrls0.bw_inst_read::switch_cpus_1.inst         1717                       # Instruction read bandwidth from this memory (bytes/s)
system.mem_ctrls0.bw_inst_read::total           23625                       # Instruction read bandwidth from this memory (bytes/s)
system.mem_ctrls0.bw_write::writebacks       43432454                       # Write bandwidth from this memory (bytes/s)
system.mem_ctrls0.bw_write::total            43432454                       # Write bandwidth from this memory (bytes/s)
system.mem_ctrls0.bw_total::writebacks       43432454                       # Total bandwidth to/from this memory (bytes/s)
system.mem_ctrls0.bw_total::cpu.inst               64                       # Total bandwidth to/from this memory (bytes/s)
system.mem_ctrls0.bw_total::cpu.data               95                       # Total bandwidth to/from this memory (bytes/s)
system.mem_ctrls0.bw_total::switch_cpus.inst        21845                       # Total bandwidth to/from this memory (bytes/s)
system.mem_ctrls0.bw_total::switch_cpus.data    116376336                       # Total bandwidth to/from this memory (bytes/s)
system.mem_ctrls0.bw_total::switch_cpus_1.inst         1717                       # Total bandwidth to/from this memory (bytes/s)
system.mem_ctrls0.bw_total::switch_cpus_1.data     20485300                       # Total bandwidth to/from this memory (bytes/s)
system.mem_ctrls0.bw_total::total           180317811                       # Total bandwidth to/from this memory (bytes/s)
system.mem_ctrls0.readReqs                    4304975                       # Number of read requests accepted
system.mem_ctrls0.writeReqs                   1365928                       # Number of write requests accepted
system.mem_ctrls0.readBursts                  4304975                       # Number of DRAM read bursts, including those serviced by the write queue
system.mem_ctrls0.writeBursts                 1365928                       # Number of DRAM write bursts, including those merged in the write queue
system.mem_ctrls0.bytesReadDRAM             275484608                       # Total number of bytes read from DRAM
system.mem_ctrls0.bytesReadWrQ                  33792                       # Total number of bytes read from write queue
system.mem_ctrls0.bytesWritten               87417408                       # Total number of bytes written to DRAM
system.mem_ctrls0.bytesReadSys              275518400                       # Total read bytes from the system interface side
system.mem_ctrls0.bytesWrittenSys            87419392                       # Total written bytes from the system interface side
system.mem_ctrls0.servicedByWrQ                   528                       # Number of DRAM read bursts serviced by the write queue
system.mem_ctrls0.mergedWrBursts                    0                       # Number of DRAM write bursts merged with an existing one
system.mem_ctrls0.neitherReadNorWriteReqs            0                       # Number of requests that are neither read nor write
system.mem_ctrls0.perBankRdBursts::0           275102                       # Per bank write bursts
system.mem_ctrls0.perBankRdBursts::1           272133                       # Per bank write bursts
system.mem_ctrls0.perBankRdBursts::2           268799                       # Per bank write bursts
system.mem_ctrls0.perBankRdBursts::3           268254                       # Per bank write bursts
system.mem_ctrls0.perBankRdBursts::4           267726                       # Per bank write bursts
system.mem_ctrls0.perBankRdBursts::5           270454                       # Per bank write bursts
system.mem_ctrls0.perBankRdBursts::6           269853                       # Per bank write bursts
system.mem_ctrls0.perBankRdBursts::7           271241                       # Per bank write bursts
system.mem_ctrls0.perBankRdBursts::8           273021                       # Per bank write bursts
system.mem_ctrls0.perBankRdBursts::9           269758                       # Per bank write bursts
system.mem_ctrls0.perBankRdBursts::10          264194                       # Per bank write bursts
system.mem_ctrls0.perBankRdBursts::11          261684                       # Per bank write bursts
system.mem_ctrls0.perBankRdBursts::12          262608                       # Per bank write bursts
system.mem_ctrls0.perBankRdBursts::13          266906                       # Per bank write bursts
system.mem_ctrls0.perBankRdBursts::14          271088                       # Per bank write bursts
system.mem_ctrls0.perBankRdBursts::15          271626                       # Per bank write bursts
system.mem_ctrls0.perBankWrBursts::0            88248                       # Per bank write bursts
system.mem_ctrls0.perBankWrBursts::1            86929                       # Per bank write bursts
system.mem_ctrls0.perBankWrBursts::2            86278                       # Per bank write bursts
system.mem_ctrls0.perBankWrBursts::3            86422                       # Per bank write bursts
system.mem_ctrls0.perBankWrBursts::4            86457                       # Per bank write bursts
system.mem_ctrls0.perBankWrBursts::5            87036                       # Per bank write bursts
system.mem_ctrls0.perBankWrBursts::6            84645                       # Per bank write bursts
system.mem_ctrls0.perBankWrBursts::7            83844                       # Per bank write bursts
system.mem_ctrls0.perBankWrBursts::8            84545                       # Per bank write bursts
system.mem_ctrls0.perBankWrBursts::9            84725                       # Per bank write bursts
system.mem_ctrls0.perBankWrBursts::10           83920                       # Per bank write bursts
system.mem_ctrls0.perBankWrBursts::11           82788                       # Per bank write bursts
system.mem_ctrls0.perBankWrBursts::12           82891                       # Per bank write bursts
system.mem_ctrls0.perBankWrBursts::13           84331                       # Per bank write bursts
system.mem_ctrls0.perBankWrBursts::14           86267                       # Per bank write bursts
system.mem_ctrls0.perBankWrBursts::15           86571                       # Per bank write bursts
system.mem_ctrls0.numRdRetry                        0                       # Number of times read queue was full causing retry
system.mem_ctrls0.numWrRetry                        0                       # Number of times write queue was full causing retry
system.mem_ctrls0.totGap                 2012766442776                       # Total gap between requests
system.mem_ctrls0.readPktSize::0                    0                       # Read request sizes (log2)
system.mem_ctrls0.readPktSize::1                    0                       # Read request sizes (log2)
system.mem_ctrls0.readPktSize::2                    0                       # Read request sizes (log2)
system.mem_ctrls0.readPktSize::3                    0                       # Read request sizes (log2)
system.mem_ctrls0.readPktSize::4                    0                       # Read request sizes (log2)
system.mem_ctrls0.readPktSize::5                    0                       # Read request sizes (log2)
system.mem_ctrls0.readPktSize::6              4304975                       # Read request sizes (log2)
system.mem_ctrls0.writePktSize::0                   0                       # Write request sizes (log2)
system.mem_ctrls0.writePktSize::1                   0                       # Write request sizes (log2)
system.mem_ctrls0.writePktSize::2                   0                       # Write request sizes (log2)
system.mem_ctrls0.writePktSize::3                   0                       # Write request sizes (log2)
system.mem_ctrls0.writePktSize::4                   0                       # Write request sizes (log2)
system.mem_ctrls0.writePktSize::5                   0                       # Write request sizes (log2)
system.mem_ctrls0.writePktSize::6             1365928                       # Write request sizes (log2)
system.mem_ctrls0.rdQLenPdf::0                4134615                       # What read queue length does an incoming req see
system.mem_ctrls0.rdQLenPdf::1                 138061                       # What read queue length does an incoming req see
system.mem_ctrls0.rdQLenPdf::2                  29688                       # What read queue length does an incoming req see
system.mem_ctrls0.rdQLenPdf::3                   2083                       # What read queue length does an incoming req see
system.mem_ctrls0.rdQLenPdf::4                      0                       # What read queue length does an incoming req see
system.mem_ctrls0.rdQLenPdf::5                      0                       # What read queue length does an incoming req see
system.mem_ctrls0.rdQLenPdf::6                      0                       # What read queue length does an incoming req see
system.mem_ctrls0.rdQLenPdf::7                      0                       # What read queue length does an incoming req see
system.mem_ctrls0.rdQLenPdf::8                      0                       # What read queue length does an incoming req see
system.mem_ctrls0.rdQLenPdf::9                      0                       # What read queue length does an incoming req see
system.mem_ctrls0.rdQLenPdf::10                     0                       # What read queue length does an incoming req see
system.mem_ctrls0.rdQLenPdf::11                     0                       # What read queue length does an incoming req see
system.mem_ctrls0.rdQLenPdf::12                     0                       # What read queue length does an incoming req see
system.mem_ctrls0.rdQLenPdf::13                     0                       # What read queue length does an incoming req see
system.mem_ctrls0.rdQLenPdf::14                     0                       # What read queue length does an incoming req see
system.mem_ctrls0.rdQLenPdf::15                     0                       # What read queue length does an incoming req see
system.mem_ctrls0.rdQLenPdf::16                     0                       # What read queue length does an incoming req see
system.mem_ctrls0.rdQLenPdf::17                     0                       # What read queue length does an incoming req see
system.mem_ctrls0.rdQLenPdf::18                     0                       # What read queue length does an incoming req see
system.mem_ctrls0.rdQLenPdf::19                     0                       # What read queue length does an incoming req see
system.mem_ctrls0.rdQLenPdf::20                     0                       # What read queue length does an incoming req see
system.mem_ctrls0.rdQLenPdf::21                     0                       # What read queue length does an incoming req see
system.mem_ctrls0.rdQLenPdf::22                     0                       # What read queue length does an incoming req see
system.mem_ctrls0.rdQLenPdf::23                     0                       # What read queue length does an incoming req see
system.mem_ctrls0.rdQLenPdf::24                     0                       # What read queue length does an incoming req see
system.mem_ctrls0.rdQLenPdf::25                     0                       # What read queue length does an incoming req see
system.mem_ctrls0.rdQLenPdf::26                     0                       # What read queue length does an incoming req see
system.mem_ctrls0.rdQLenPdf::27                     0                       # What read queue length does an incoming req see
system.mem_ctrls0.rdQLenPdf::28                     0                       # What read queue length does an incoming req see
system.mem_ctrls0.rdQLenPdf::29                     0                       # What read queue length does an incoming req see
system.mem_ctrls0.rdQLenPdf::30                     0                       # What read queue length does an incoming req see
system.mem_ctrls0.rdQLenPdf::31                     0                       # What read queue length does an incoming req see
system.mem_ctrls0.wrQLenPdf::0                      2                       # What write queue length does an incoming req see
system.mem_ctrls0.wrQLenPdf::1                      2                       # What write queue length does an incoming req see
system.mem_ctrls0.wrQLenPdf::2                      2                       # What write queue length does an incoming req see
system.mem_ctrls0.wrQLenPdf::3                      2                       # What write queue length does an incoming req see
system.mem_ctrls0.wrQLenPdf::4                      2                       # What write queue length does an incoming req see
system.mem_ctrls0.wrQLenPdf::5                      2                       # What write queue length does an incoming req see
system.mem_ctrls0.wrQLenPdf::6                      2                       # What write queue length does an incoming req see
system.mem_ctrls0.wrQLenPdf::7                      2                       # What write queue length does an incoming req see
system.mem_ctrls0.wrQLenPdf::8                      2                       # What write queue length does an incoming req see
system.mem_ctrls0.wrQLenPdf::9                      2                       # What write queue length does an incoming req see
system.mem_ctrls0.wrQLenPdf::10                     2                       # What write queue length does an incoming req see
system.mem_ctrls0.wrQLenPdf::11                     2                       # What write queue length does an incoming req see
system.mem_ctrls0.wrQLenPdf::12                     2                       # What write queue length does an incoming req see
system.mem_ctrls0.wrQLenPdf::13                     2                       # What write queue length does an incoming req see
system.mem_ctrls0.wrQLenPdf::14                     2                       # What write queue length does an incoming req see
system.mem_ctrls0.wrQLenPdf::15                 43103                       # What write queue length does an incoming req see
system.mem_ctrls0.wrQLenPdf::16                 44879                       # What write queue length does an incoming req see
system.mem_ctrls0.wrQLenPdf::17                 75310                       # What write queue length does an incoming req see
system.mem_ctrls0.wrQLenPdf::18                 79236                       # What write queue length does an incoming req see
system.mem_ctrls0.wrQLenPdf::19                 80017                       # What write queue length does an incoming req see
system.mem_ctrls0.wrQLenPdf::20                 80116                       # What write queue length does an incoming req see
system.mem_ctrls0.wrQLenPdf::21                 80184                       # What write queue length does an incoming req see
system.mem_ctrls0.wrQLenPdf::22                 80183                       # What write queue length does an incoming req see
system.mem_ctrls0.wrQLenPdf::23                 80266                       # What write queue length does an incoming req see
system.mem_ctrls0.wrQLenPdf::24                 80461                       # What write queue length does an incoming req see
system.mem_ctrls0.wrQLenPdf::25                 81105                       # What write queue length does an incoming req see
system.mem_ctrls0.wrQLenPdf::26                 80752                       # What write queue length does an incoming req see
system.mem_ctrls0.wrQLenPdf::27                 80321                       # What write queue length does an incoming req see
system.mem_ctrls0.wrQLenPdf::28                 80189                       # What write queue length does an incoming req see
system.mem_ctrls0.wrQLenPdf::29                 80113                       # What write queue length does an incoming req see
system.mem_ctrls0.wrQLenPdf::30                 80106                       # What write queue length does an incoming req see
system.mem_ctrls0.wrQLenPdf::31                 79763                       # What write queue length does an incoming req see
system.mem_ctrls0.wrQLenPdf::32                 79708                       # What write queue length does an incoming req see
system.mem_ctrls0.wrQLenPdf::33                    72                       # What write queue length does an incoming req see
system.mem_ctrls0.wrQLenPdf::34                    12                       # What write queue length does an incoming req see
system.mem_ctrls0.wrQLenPdf::35                     1                       # What write queue length does an incoming req see
system.mem_ctrls0.wrQLenPdf::36                     1                       # What write queue length does an incoming req see
system.mem_ctrls0.wrQLenPdf::37                     0                       # What write queue length does an incoming req see
system.mem_ctrls0.wrQLenPdf::38                     0                       # What write queue length does an incoming req see
system.mem_ctrls0.wrQLenPdf::39                     0                       # What write queue length does an incoming req see
system.mem_ctrls0.wrQLenPdf::40                     0                       # What write queue length does an incoming req see
system.mem_ctrls0.wrQLenPdf::41                     0                       # What write queue length does an incoming req see
system.mem_ctrls0.wrQLenPdf::42                     0                       # What write queue length does an incoming req see
system.mem_ctrls0.wrQLenPdf::43                     0                       # What write queue length does an incoming req see
system.mem_ctrls0.wrQLenPdf::44                     0                       # What write queue length does an incoming req see
system.mem_ctrls0.wrQLenPdf::45                     0                       # What write queue length does an incoming req see
system.mem_ctrls0.wrQLenPdf::46                     0                       # What write queue length does an incoming req see
system.mem_ctrls0.wrQLenPdf::47                     0                       # What write queue length does an incoming req see
system.mem_ctrls0.wrQLenPdf::48                     0                       # What write queue length does an incoming req see
system.mem_ctrls0.wrQLenPdf::49                     0                       # What write queue length does an incoming req see
system.mem_ctrls0.wrQLenPdf::50                     0                       # What write queue length does an incoming req see
system.mem_ctrls0.wrQLenPdf::51                     0                       # What write queue length does an incoming req see
system.mem_ctrls0.wrQLenPdf::52                     0                       # What write queue length does an incoming req see
system.mem_ctrls0.wrQLenPdf::53                     0                       # What write queue length does an incoming req see
system.mem_ctrls0.wrQLenPdf::54                     0                       # What write queue length does an incoming req see
system.mem_ctrls0.wrQLenPdf::55                     0                       # What write queue length does an incoming req see
system.mem_ctrls0.wrQLenPdf::56                     0                       # What write queue length does an incoming req see
system.mem_ctrls0.wrQLenPdf::57                     0                       # What write queue length does an incoming req see
system.mem_ctrls0.wrQLenPdf::58                     0                       # What write queue length does an incoming req see
system.mem_ctrls0.wrQLenPdf::59                     0                       # What write queue length does an incoming req see
system.mem_ctrls0.wrQLenPdf::60                     0                       # What write queue length does an incoming req see
system.mem_ctrls0.wrQLenPdf::61                     0                       # What write queue length does an incoming req see
system.mem_ctrls0.wrQLenPdf::62                     0                       # What write queue length does an incoming req see
system.mem_ctrls0.wrQLenPdf::63                     0                       # What write queue length does an incoming req see
system.mem_ctrls0.bytesPerActivate::samples      2684287                       # Bytes accessed per row activation
system.mem_ctrls0.bytesPerActivate::mean   135.194176                       # Bytes accessed per row activation
system.mem_ctrls0.bytesPerActivate::gmean   104.235133                       # Bytes accessed per row activation
system.mem_ctrls0.bytesPerActivate::stdev   130.847764                       # Bytes accessed per row activation
system.mem_ctrls0.bytesPerActivate::0-127      1457686     54.30%     54.30% # Bytes accessed per row activation
system.mem_ctrls0.bytesPerActivate::128-255       904815     33.71%     88.01% # Bytes accessed per row activation
system.mem_ctrls0.bytesPerActivate::256-383       119625      4.46%     92.47% # Bytes accessed per row activation
system.mem_ctrls0.bytesPerActivate::384-511        78090      2.91%     95.38% # Bytes accessed per row activation
system.mem_ctrls0.bytesPerActivate::512-639        75949      2.83%     98.21% # Bytes accessed per row activation
system.mem_ctrls0.bytesPerActivate::640-767        32878      1.22%     99.43% # Bytes accessed per row activation
system.mem_ctrls0.bytesPerActivate::768-895         8051      0.30%     99.73% # Bytes accessed per row activation
system.mem_ctrls0.bytesPerActivate::896-1023         1769      0.07%     99.80% # Bytes accessed per row activation
system.mem_ctrls0.bytesPerActivate::1024-1151         5424      0.20%    100.00% # Bytes accessed per row activation
system.mem_ctrls0.bytesPerActivate::total      2684287                       # Bytes accessed per row activation
system.mem_ctrls0.rdPerTurnAround::samples        79633                       # Reads before turning the bus around for writes
system.mem_ctrls0.rdPerTurnAround::mean     54.053068                       # Reads before turning the bus around for writes
system.mem_ctrls0.rdPerTurnAround::gmean    48.337840                       # Reads before turning the bus around for writes
system.mem_ctrls0.rdPerTurnAround::stdev   115.444120                       # Reads before turning the bus around for writes
system.mem_ctrls0.rdPerTurnAround::0-1023        79632    100.00%    100.00% # Reads before turning the bus around for writes
system.mem_ctrls0.rdPerTurnAround::31744-32767            1      0.00%    100.00% # Reads before turning the bus around for writes
system.mem_ctrls0.rdPerTurnAround::total        79633                       # Reads before turning the bus around for writes
system.mem_ctrls0.wrPerTurnAround::samples        79633                       # Writes before turning the bus around for reads
system.mem_ctrls0.wrPerTurnAround::mean     17.152399                       # Writes before turning the bus around for reads
system.mem_ctrls0.wrPerTurnAround::gmean    17.120051                       # Writes before turning the bus around for reads
system.mem_ctrls0.wrPerTurnAround::stdev     1.052104                       # Writes before turning the bus around for reads
system.mem_ctrls0.wrPerTurnAround::15               1      0.00%      0.00% # Writes before turning the bus around for reads
system.mem_ctrls0.wrPerTurnAround::16           34871     43.79%     43.79% # Writes before turning the bus around for reads
system.mem_ctrls0.wrPerTurnAround::17            1453      1.82%     45.62% # Writes before turning the bus around for reads
system.mem_ctrls0.wrPerTurnAround::18           39930     50.14%     95.76% # Writes before turning the bus around for reads
system.mem_ctrls0.wrPerTurnAround::19            3084      3.87%     99.63% # Writes before turning the bus around for reads
system.mem_ctrls0.wrPerTurnAround::20             268      0.34%     99.97% # Writes before turning the bus around for reads
system.mem_ctrls0.wrPerTurnAround::21              23      0.03%    100.00% # Writes before turning the bus around for reads
system.mem_ctrls0.wrPerTurnAround::22               3      0.00%    100.00% # Writes before turning the bus around for reads
system.mem_ctrls0.wrPerTurnAround::total        79633                       # Writes before turning the bus around for reads
system.mem_ctrls0.totQLat                 97030378768                       # Total ticks spent queuing
system.mem_ctrls0.totMemAccLat           177738760018                       # Total ticks spent from burst creation until serviced by the DRAM
system.mem_ctrls0.totBusLat               21522235000                       # Total ticks spent in databus transfers
system.mem_ctrls0.avgQLat                    22541.89                       # Average queueing delay per DRAM burst
system.mem_ctrls0.avgBusLat                   5000.00                       # Average bus latency per DRAM burst
system.mem_ctrls0.avgMemAccLat               41291.89                       # Average memory access latency per DRAM burst
system.mem_ctrls0.avgRdBW                      136.87                       # Average DRAM read bandwidth in MiByte/s
system.mem_ctrls0.avgWrBW                       43.43                       # Average achieved write bandwidth in MiByte/s
system.mem_ctrls0.avgRdBWSys                   136.89                       # Average system read bandwidth in MiByte/s
system.mem_ctrls0.avgWrBWSys                    43.43                       # Average system write bandwidth in MiByte/s
system.mem_ctrls0.peakBW                     12800.00                       # Theoretical peak bandwidth in MiByte/s
system.mem_ctrls0.busUtil                        1.41                       # Data bus utilization in percentage
system.mem_ctrls0.busUtilRead                    1.07                       # Data bus utilization in percentage for reads
system.mem_ctrls0.busUtilWrite                   0.34                       # Data bus utilization in percentage for writes
system.mem_ctrls0.avgRdQLen                      1.02                       # Average read queue length when enqueuing
system.mem_ctrls0.avgWrQLen                     24.53                       # Average write queue length when enqueuing
system.mem_ctrls0.readRowHits                 2593597                       # Number of row buffer hits during reads
system.mem_ctrls0.writeRowHits                 392450                       # Number of row buffer hits during writes
system.mem_ctrls0.readRowHitRate                60.25                       # Row buffer hit rate for reads
system.mem_ctrls0.writeRowHitRate               28.73                       # Row buffer hit rate for writes
system.mem_ctrls0.avgGap                    354928.74                       # Average gap between requests
system.mem_ctrls0.pageHitRate                   52.66                       # Row buffer hit rate, read and write combined
system.mem_ctrls0_0.actEnergy              9648074940                       # Energy for activate commands per rank (pJ)
system.mem_ctrls0_0.preEnergy              5128050675                       # Energy for precharge commands per rank (pJ)
system.mem_ctrls0_0.readEnergy            15447832680                       # Energy for read commands per rank (pJ)
system.mem_ctrls0_0.writeEnergy            3601063980                       # Energy for write commands per rank (pJ)
system.mem_ctrls0_0.refreshEnergy        156351508560.000031                       # Energy for refresh commands per rank (pJ)
system.mem_ctrls0_0.actBackEnergy         96102079800                       # Energy for active background per rank (pJ)
system.mem_ctrls0_0.preBackEnergy          5587547040                       # Energy for precharge background per rank (pJ)
system.mem_ctrls0_0.actPowerDownEnergy   606162914700                       # Energy for active power-down per rank (pJ)
system.mem_ctrls0_0.prePowerDownEnergy   118717450080                       # Energy for precharge power-down per rank (pJ)
system.mem_ctrls0_0.selfRefreshEnergy     44672115360                       # Energy for self refresh per rank (pJ)
system.mem_ctrls0_0.totalEnergy          1061451058815                       # Total energy per rank (pJ)
system.mem_ctrls0_0.averagePower           527.359239                       # Core power per rank (mW)
system.mem_ctrls0_0.totalIdleTime        1787400040922                       # Total Idle time Per DRAM Rank
system.mem_ctrls0_0.memoryStateTime::IDLE   5697944243                       # Time in different power states
system.mem_ctrls0_0.memoryStateTime::REF  66238746000                       # Time in different power states
system.mem_ctrls0_0.memoryStateTime::SREF 148928754637                       # Time in different power states
system.mem_ctrls0_0.memoryStateTime::PRE_PDN 309161504951                       # Time in different power states
system.mem_ctrls0_0.memoryStateTime::ACT 153429853469                       # Time in different power states
system.mem_ctrls0_0.memoryStateTime::ACT_PDN 1329309781334                       # Time in different power states
system.mem_ctrls0_1.actEnergy              9517805640                       # Energy for activate commands per rank (pJ)
system.mem_ctrls0_1.preEnergy              5058818490                       # Energy for precharge commands per rank (pJ)
system.mem_ctrls0_1.readEnergy            15285911760                       # Energy for read commands per rank (pJ)
system.mem_ctrls0_1.writeEnergy            3528918360                       # Energy for write commands per rank (pJ)
system.mem_ctrls0_1.refreshEnergy        155894831040.000031                       # Energy for refresh commands per rank (pJ)
system.mem_ctrls0_1.actBackEnergy         96218730870                       # Energy for active background per rank (pJ)
system.mem_ctrls0_1.preBackEnergy          5627883840                       # Energy for precharge background per rank (pJ)
system.mem_ctrls0_1.actPowerDownEnergy   600309607500                       # Energy for active power-down per rank (pJ)
system.mem_ctrls0_1.prePowerDownEnergy   119731615680                       # Energy for precharge power-down per rank (pJ)
system.mem_ctrls0_1.selfRefreshEnergy     47342219775                       # Energy for self refresh per rank (pJ)
system.mem_ctrls0_1.totalEnergy          1058551469505                       # Total energy per rank (pJ)
system.mem_ctrls0_1.averagePower           525.918637                       # Core power per rank (mW)
system.mem_ctrls0_1.totalIdleTime        1787024542305                       # Total Idle time Per DRAM Rank
system.mem_ctrls0_1.memoryStateTime::IDLE   5883313305                       # Time in different power states
system.mem_ctrls0_1.memoryStateTime::REF  66049058000                       # Time in different power states
system.mem_ctrls0_1.memoryStateTime::SREF 158756980476                       # Time in different power states
system.mem_ctrls0_1.memoryStateTime::PRE_PDN 311804112676                       # Time in different power states
system.mem_ctrls0_1.memoryStateTime::ACT 153809671024                       # Time in different power states
system.mem_ctrls0_1.memoryStateTime::ACT_PDN 1316463449153                       # Time in different power states
system.mem_ctrls1.pwrStateResidencyTicks::UNDEFINED 75282920385336                       # Cumulative time (in ticks) in various power states
system.mem_ctrls1.bytes_read::cpu.inst            128                       # Number of bytes read from this memory
system.mem_ctrls1.bytes_read::cpu.data            192                       # Number of bytes read from this memory
system.mem_ctrls1.bytes_read::switch_cpus.inst        43840                       # Number of bytes read from this memory
system.mem_ctrls1.bytes_read::switch_cpus.data    234243840                       # Number of bytes read from this memory
system.mem_ctrls1.bytes_read::switch_cpus_1.inst         3200                       # Number of bytes read from this memory
system.mem_ctrls1.bytes_read::switch_cpus_1.data     41216896                       # Number of bytes read from this memory
system.mem_ctrls1.bytes_read::total         275508096                       # Number of bytes read from this memory
system.mem_ctrls1.bytes_inst_read::cpu.inst          128                       # Number of instructions bytes read from this memory
system.mem_ctrls1.bytes_inst_read::switch_cpus.inst        43840                       # Number of instructions bytes read from this memory
system.mem_ctrls1.bytes_inst_read::switch_cpus_1.inst         3200                       # Number of instructions bytes read from this memory
system.mem_ctrls1.bytes_inst_read::total        47168                       # Number of instructions bytes read from this memory
system.mem_ctrls1.bytes_written::writebacks     87456448                       # Number of bytes written to this memory
system.mem_ctrls1.bytes_written::total       87456448                       # Number of bytes written to this memory
system.mem_ctrls1.num_reads::cpu.inst               2                       # Number of read requests responded to by this memory
system.mem_ctrls1.num_reads::cpu.data               3                       # Number of read requests responded to by this memory
system.mem_ctrls1.num_reads::switch_cpus.inst          685                       # Number of read requests responded to by this memory
system.mem_ctrls1.num_reads::switch_cpus.data      3660060                       # Number of read requests responded to by this memory
system.mem_ctrls1.num_reads::switch_cpus_1.inst           50                       # Number of read requests responded to by this memory
system.mem_ctrls1.num_reads::switch_cpus_1.data       644014                       # Number of read requests responded to by this memory
system.mem_ctrls1.num_reads::total            4304814                       # Number of read requests responded to by this memory
system.mem_ctrls1.num_writes::writebacks      1366507                       # Number of write requests responded to by this memory
system.mem_ctrls1.num_writes::total           1366507                       # Number of write requests responded to by this memory
system.mem_ctrls1.bw_read::cpu.inst                64                       # Total read bandwidth from this memory (bytes/s)
system.mem_ctrls1.bw_read::cpu.data                95                       # Total read bandwidth from this memory (bytes/s)
system.mem_ctrls1.bw_read::switch_cpus.inst        21781                       # Total read bandwidth from this memory (bytes/s)
system.mem_ctrls1.bw_read::switch_cpus.data    116379039                       # Total read bandwidth from this memory (bytes/s)
system.mem_ctrls1.bw_read::switch_cpus_1.inst         1590                       # Total read bandwidth from this memory (bytes/s)
system.mem_ctrls1.bw_read::switch_cpus_1.data     20477733                       # Total read bandwidth from this memory (bytes/s)
system.mem_ctrls1.bw_read::total            136880301                       # Total read bandwidth from this memory (bytes/s)
system.mem_ctrls1.bw_inst_read::cpu.inst           64                       # Instruction read bandwidth from this memory (bytes/s)
system.mem_ctrls1.bw_inst_read::switch_cpus.inst        21781                       # Instruction read bandwidth from this memory (bytes/s)
system.mem_ctrls1.bw_inst_read::switch_cpus_1.inst         1590                       # Instruction read bandwidth from this memory (bytes/s)
system.mem_ctrls1.bw_inst_read::total           23434                       # Instruction read bandwidth from this memory (bytes/s)
system.mem_ctrls1.bw_write::writebacks       43450864                       # Write bandwidth from this memory (bytes/s)
system.mem_ctrls1.bw_write::total            43450864                       # Write bandwidth from this memory (bytes/s)
system.mem_ctrls1.bw_total::writebacks       43450864                       # Total bandwidth to/from this memory (bytes/s)
system.mem_ctrls1.bw_total::cpu.inst               64                       # Total bandwidth to/from this memory (bytes/s)
system.mem_ctrls1.bw_total::cpu.data               95                       # Total bandwidth to/from this memory (bytes/s)
system.mem_ctrls1.bw_total::switch_cpus.inst        21781                       # Total bandwidth to/from this memory (bytes/s)
system.mem_ctrls1.bw_total::switch_cpus.data    116379039                       # Total bandwidth to/from this memory (bytes/s)
system.mem_ctrls1.bw_total::switch_cpus_1.inst         1590                       # Total bandwidth to/from this memory (bytes/s)
system.mem_ctrls1.bw_total::switch_cpus_1.data     20477733                       # Total bandwidth to/from this memory (bytes/s)
system.mem_ctrls1.bw_total::total           180331165                       # Total bandwidth to/from this memory (bytes/s)
system.mem_ctrls1.readReqs                    4304814                       # Number of read requests accepted
system.mem_ctrls1.writeReqs                   1366507                       # Number of write requests accepted
system.mem_ctrls1.readBursts                  4304814                       # Number of DRAM read bursts, including those serviced by the write queue
system.mem_ctrls1.writeBursts                 1366507                       # Number of DRAM write bursts, including those merged in the write queue
system.mem_ctrls1.bytesReadDRAM             275473344                       # Total number of bytes read from DRAM
system.mem_ctrls1.bytesReadWrQ                  34752                       # Total number of bytes read from write queue
system.mem_ctrls1.bytesWritten               87455040                       # Total number of bytes written to DRAM
system.mem_ctrls1.bytesReadSys              275508096                       # Total read bytes from the system interface side
system.mem_ctrls1.bytesWrittenSys            87456448                       # Total written bytes from the system interface side
system.mem_ctrls1.servicedByWrQ                   543                       # Number of DRAM read bursts serviced by the write queue
system.mem_ctrls1.mergedWrBursts                    0                       # Number of DRAM write bursts merged with an existing one
system.mem_ctrls1.neitherReadNorWriteReqs            0                       # Number of requests that are neither read nor write
system.mem_ctrls1.perBankRdBursts::0           275014                       # Per bank write bursts
system.mem_ctrls1.perBankRdBursts::1           271792                       # Per bank write bursts
system.mem_ctrls1.perBankRdBursts::2           269275                       # Per bank write bursts
system.mem_ctrls1.perBankRdBursts::3           268536                       # Per bank write bursts
system.mem_ctrls1.perBankRdBursts::4           267518                       # Per bank write bursts
system.mem_ctrls1.perBankRdBursts::5           270098                       # Per bank write bursts
system.mem_ctrls1.perBankRdBursts::6           269875                       # Per bank write bursts
system.mem_ctrls1.perBankRdBursts::7           271193                       # Per bank write bursts
system.mem_ctrls1.perBankRdBursts::8           272803                       # Per bank write bursts
system.mem_ctrls1.perBankRdBursts::9           269986                       # Per bank write bursts
system.mem_ctrls1.perBankRdBursts::10          264672                       # Per bank write bursts
system.mem_ctrls1.perBankRdBursts::11          261668                       # Per bank write bursts
system.mem_ctrls1.perBankRdBursts::12          262540                       # Per bank write bursts
system.mem_ctrls1.perBankRdBursts::13          266674                       # Per bank write bursts
system.mem_ctrls1.perBankRdBursts::14          271194                       # Per bank write bursts
system.mem_ctrls1.perBankRdBursts::15          271433                       # Per bank write bursts
system.mem_ctrls1.perBankWrBursts::0            88330                       # Per bank write bursts
system.mem_ctrls1.perBankWrBursts::1            86953                       # Per bank write bursts
system.mem_ctrls1.perBankWrBursts::2            86480                       # Per bank write bursts
system.mem_ctrls1.perBankWrBursts::3            86551                       # Per bank write bursts
system.mem_ctrls1.perBankWrBursts::4            86426                       # Per bank write bursts
system.mem_ctrls1.perBankWrBursts::5            86866                       # Per bank write bursts
system.mem_ctrls1.perBankWrBursts::6            84611                       # Per bank write bursts
system.mem_ctrls1.perBankWrBursts::7            83904                       # Per bank write bursts
system.mem_ctrls1.perBankWrBursts::8            84533                       # Per bank write bursts
system.mem_ctrls1.perBankWrBursts::9            84814                       # Per bank write bursts
system.mem_ctrls1.perBankWrBursts::10           83986                       # Per bank write bursts
system.mem_ctrls1.perBankWrBursts::11           82853                       # Per bank write bursts
system.mem_ctrls1.perBankWrBursts::12           82827                       # Per bank write bursts
system.mem_ctrls1.perBankWrBursts::13           84326                       # Per bank write bursts
system.mem_ctrls1.perBankWrBursts::14           86424                       # Per bank write bursts
system.mem_ctrls1.perBankWrBursts::15           86601                       # Per bank write bursts
system.mem_ctrls1.numRdRetry                        0                       # Number of times read queue was full causing retry
system.mem_ctrls1.numWrRetry                        0                       # Number of times write queue was full causing retry
system.mem_ctrls1.totGap                 2012766381171                       # Total gap between requests
system.mem_ctrls1.readPktSize::0                    0                       # Read request sizes (log2)
system.mem_ctrls1.readPktSize::1                    0                       # Read request sizes (log2)
system.mem_ctrls1.readPktSize::2                    0                       # Read request sizes (log2)
system.mem_ctrls1.readPktSize::3                    0                       # Read request sizes (log2)
system.mem_ctrls1.readPktSize::4                    0                       # Read request sizes (log2)
system.mem_ctrls1.readPktSize::5                    0                       # Read request sizes (log2)
system.mem_ctrls1.readPktSize::6              4304814                       # Read request sizes (log2)
system.mem_ctrls1.writePktSize::0                   0                       # Write request sizes (log2)
system.mem_ctrls1.writePktSize::1                   0                       # Write request sizes (log2)
system.mem_ctrls1.writePktSize::2                   0                       # Write request sizes (log2)
system.mem_ctrls1.writePktSize::3                   0                       # Write request sizes (log2)
system.mem_ctrls1.writePktSize::4                   0                       # Write request sizes (log2)
system.mem_ctrls1.writePktSize::5                   0                       # Write request sizes (log2)
system.mem_ctrls1.writePktSize::6             1366507                       # Write request sizes (log2)
system.mem_ctrls1.rdQLenPdf::0                4134734                       # What read queue length does an incoming req see
system.mem_ctrls1.rdQLenPdf::1                 137599                       # What read queue length does an incoming req see
system.mem_ctrls1.rdQLenPdf::2                  29754                       # What read queue length does an incoming req see
system.mem_ctrls1.rdQLenPdf::3                   2184                       # What read queue length does an incoming req see
system.mem_ctrls1.rdQLenPdf::4                      0                       # What read queue length does an incoming req see
system.mem_ctrls1.rdQLenPdf::5                      0                       # What read queue length does an incoming req see
system.mem_ctrls1.rdQLenPdf::6                      0                       # What read queue length does an incoming req see
system.mem_ctrls1.rdQLenPdf::7                      0                       # What read queue length does an incoming req see
system.mem_ctrls1.rdQLenPdf::8                      0                       # What read queue length does an incoming req see
system.mem_ctrls1.rdQLenPdf::9                      0                       # What read queue length does an incoming req see
system.mem_ctrls1.rdQLenPdf::10                     0                       # What read queue length does an incoming req see
system.mem_ctrls1.rdQLenPdf::11                     0                       # What read queue length does an incoming req see
system.mem_ctrls1.rdQLenPdf::12                     0                       # What read queue length does an incoming req see
system.mem_ctrls1.rdQLenPdf::13                     0                       # What read queue length does an incoming req see
system.mem_ctrls1.rdQLenPdf::14                     0                       # What read queue length does an incoming req see
system.mem_ctrls1.rdQLenPdf::15                     0                       # What read queue length does an incoming req see
system.mem_ctrls1.rdQLenPdf::16                     0                       # What read queue length does an incoming req see
system.mem_ctrls1.rdQLenPdf::17                     0                       # What read queue length does an incoming req see
system.mem_ctrls1.rdQLenPdf::18                     0                       # What read queue length does an incoming req see
system.mem_ctrls1.rdQLenPdf::19                     0                       # What read queue length does an incoming req see
system.mem_ctrls1.rdQLenPdf::20                     0                       # What read queue length does an incoming req see
system.mem_ctrls1.rdQLenPdf::21                     0                       # What read queue length does an incoming req see
system.mem_ctrls1.rdQLenPdf::22                     0                       # What read queue length does an incoming req see
system.mem_ctrls1.rdQLenPdf::23                     0                       # What read queue length does an incoming req see
system.mem_ctrls1.rdQLenPdf::24                     0                       # What read queue length does an incoming req see
system.mem_ctrls1.rdQLenPdf::25                     0                       # What read queue length does an incoming req see
system.mem_ctrls1.rdQLenPdf::26                     0                       # What read queue length does an incoming req see
system.mem_ctrls1.rdQLenPdf::27                     0                       # What read queue length does an incoming req see
system.mem_ctrls1.rdQLenPdf::28                     0                       # What read queue length does an incoming req see
system.mem_ctrls1.rdQLenPdf::29                     0                       # What read queue length does an incoming req see
system.mem_ctrls1.rdQLenPdf::30                     0                       # What read queue length does an incoming req see
system.mem_ctrls1.rdQLenPdf::31                     0                       # What read queue length does an incoming req see
system.mem_ctrls1.wrQLenPdf::0                      2                       # What write queue length does an incoming req see
system.mem_ctrls1.wrQLenPdf::1                      2                       # What write queue length does an incoming req see
system.mem_ctrls1.wrQLenPdf::2                      2                       # What write queue length does an incoming req see
system.mem_ctrls1.wrQLenPdf::3                      2                       # What write queue length does an incoming req see
system.mem_ctrls1.wrQLenPdf::4                      2                       # What write queue length does an incoming req see
system.mem_ctrls1.wrQLenPdf::5                      2                       # What write queue length does an incoming req see
system.mem_ctrls1.wrQLenPdf::6                      2                       # What write queue length does an incoming req see
system.mem_ctrls1.wrQLenPdf::7                      2                       # What write queue length does an incoming req see
system.mem_ctrls1.wrQLenPdf::8                      2                       # What write queue length does an incoming req see
system.mem_ctrls1.wrQLenPdf::9                      2                       # What write queue length does an incoming req see
system.mem_ctrls1.wrQLenPdf::10                     2                       # What write queue length does an incoming req see
system.mem_ctrls1.wrQLenPdf::11                     2                       # What write queue length does an incoming req see
system.mem_ctrls1.wrQLenPdf::12                     2                       # What write queue length does an incoming req see
system.mem_ctrls1.wrQLenPdf::13                     2                       # What write queue length does an incoming req see
system.mem_ctrls1.wrQLenPdf::14                     2                       # What write queue length does an incoming req see
system.mem_ctrls1.wrQLenPdf::15                 43032                       # What write queue length does an incoming req see
system.mem_ctrls1.wrQLenPdf::16                 44855                       # What write queue length does an incoming req see
system.mem_ctrls1.wrQLenPdf::17                 75422                       # What write queue length does an incoming req see
system.mem_ctrls1.wrQLenPdf::18                 79282                       # What write queue length does an incoming req see
system.mem_ctrls1.wrQLenPdf::19                 80025                       # What write queue length does an incoming req see
system.mem_ctrls1.wrQLenPdf::20                 80184                       # What write queue length does an incoming req see
system.mem_ctrls1.wrQLenPdf::21                 80199                       # What write queue length does an incoming req see
system.mem_ctrls1.wrQLenPdf::22                 80241                       # What write queue length does an incoming req see
system.mem_ctrls1.wrQLenPdf::23                 80313                       # What write queue length does an incoming req see
system.mem_ctrls1.wrQLenPdf::24                 80452                       # What write queue length does an incoming req see
system.mem_ctrls1.wrQLenPdf::25                 81161                       # What write queue length does an incoming req see
system.mem_ctrls1.wrQLenPdf::26                 80730                       # What write queue length does an incoming req see
system.mem_ctrls1.wrQLenPdf::27                 80346                       # What write queue length does an incoming req see
system.mem_ctrls1.wrQLenPdf::28                 80281                       # What write queue length does an incoming req see
system.mem_ctrls1.wrQLenPdf::29                 80163                       # What write queue length does an incoming req see
system.mem_ctrls1.wrQLenPdf::30                 80146                       # What write queue length does an incoming req see
system.mem_ctrls1.wrQLenPdf::31                 79814                       # What write queue length does an incoming req see
system.mem_ctrls1.wrQLenPdf::32                 79735                       # What write queue length does an incoming req see
system.mem_ctrls1.wrQLenPdf::33                    85                       # What write queue length does an incoming req see
system.mem_ctrls1.wrQLenPdf::34                    10                       # What write queue length does an incoming req see
system.mem_ctrls1.wrQLenPdf::35                     1                       # What write queue length does an incoming req see
system.mem_ctrls1.wrQLenPdf::36                     0                       # What write queue length does an incoming req see
system.mem_ctrls1.wrQLenPdf::37                     0                       # What write queue length does an incoming req see
system.mem_ctrls1.wrQLenPdf::38                     0                       # What write queue length does an incoming req see
system.mem_ctrls1.wrQLenPdf::39                     0                       # What write queue length does an incoming req see
system.mem_ctrls1.wrQLenPdf::40                     0                       # What write queue length does an incoming req see
system.mem_ctrls1.wrQLenPdf::41                     0                       # What write queue length does an incoming req see
system.mem_ctrls1.wrQLenPdf::42                     0                       # What write queue length does an incoming req see
system.mem_ctrls1.wrQLenPdf::43                     0                       # What write queue length does an incoming req see
system.mem_ctrls1.wrQLenPdf::44                     0                       # What write queue length does an incoming req see
system.mem_ctrls1.wrQLenPdf::45                     0                       # What write queue length does an incoming req see
system.mem_ctrls1.wrQLenPdf::46                     0                       # What write queue length does an incoming req see
system.mem_ctrls1.wrQLenPdf::47                     0                       # What write queue length does an incoming req see
system.mem_ctrls1.wrQLenPdf::48                     0                       # What write queue length does an incoming req see
system.mem_ctrls1.wrQLenPdf::49                     0                       # What write queue length does an incoming req see
system.mem_ctrls1.wrQLenPdf::50                     0                       # What write queue length does an incoming req see
system.mem_ctrls1.wrQLenPdf::51                     0                       # What write queue length does an incoming req see
system.mem_ctrls1.wrQLenPdf::52                     0                       # What write queue length does an incoming req see
system.mem_ctrls1.wrQLenPdf::53                     0                       # What write queue length does an incoming req see
system.mem_ctrls1.wrQLenPdf::54                     0                       # What write queue length does an incoming req see
system.mem_ctrls1.wrQLenPdf::55                     0                       # What write queue length does an incoming req see
system.mem_ctrls1.wrQLenPdf::56                     0                       # What write queue length does an incoming req see
system.mem_ctrls1.wrQLenPdf::57                     0                       # What write queue length does an incoming req see
system.mem_ctrls1.wrQLenPdf::58                     0                       # What write queue length does an incoming req see
system.mem_ctrls1.wrQLenPdf::59                     0                       # What write queue length does an incoming req see
system.mem_ctrls1.wrQLenPdf::60                     0                       # What write queue length does an incoming req see
system.mem_ctrls1.wrQLenPdf::61                     0                       # What write queue length does an incoming req see
system.mem_ctrls1.wrQLenPdf::62                     0                       # What write queue length does an incoming req see
system.mem_ctrls1.wrQLenPdf::63                     0                       # What write queue length does an incoming req see
system.mem_ctrls1.bytesPerActivate::samples      2684160                       # Bytes accessed per row activation
system.mem_ctrls1.bytesPerActivate::mean   135.210491                       # Bytes accessed per row activation
system.mem_ctrls1.bytesPerActivate::gmean   104.233218                       # Bytes accessed per row activation
system.mem_ctrls1.bytesPerActivate::stdev   130.909131                       # Bytes accessed per row activation
system.mem_ctrls1.bytesPerActivate::0-127      1457849     54.31%     54.31% # Bytes accessed per row activation
system.mem_ctrls1.bytesPerActivate::128-255       904462     33.70%     88.01% # Bytes accessed per row activation
system.mem_ctrls1.bytesPerActivate::256-383       119603      4.46%     92.47% # Bytes accessed per row activation
system.mem_ctrls1.bytesPerActivate::384-511        77917      2.90%     95.37% # Bytes accessed per row activation
system.mem_ctrls1.bytesPerActivate::512-639        75838      2.83%     98.19% # Bytes accessed per row activation
system.mem_ctrls1.bytesPerActivate::640-767        33402      1.24%     99.44% # Bytes accessed per row activation
system.mem_ctrls1.bytesPerActivate::768-895         7907      0.29%     99.73% # Bytes accessed per row activation
system.mem_ctrls1.bytesPerActivate::896-1023         1757      0.07%     99.80% # Bytes accessed per row activation
system.mem_ctrls1.bytesPerActivate::1024-1151         5425      0.20%    100.00% # Bytes accessed per row activation
system.mem_ctrls1.bytesPerActivate::total      2684160                       # Bytes accessed per row activation
system.mem_ctrls1.rdPerTurnAround::samples        79672                       # Reads before turning the bus around for writes
system.mem_ctrls1.rdPerTurnAround::mean     54.024475                       # Reads before turning the bus around for writes
system.mem_ctrls1.rdPerTurnAround::gmean    48.310403                       # Reads before turning the bus around for writes
system.mem_ctrls1.rdPerTurnAround::stdev   115.556588                       # Reads before turning the bus around for writes
system.mem_ctrls1.rdPerTurnAround::0-1023        79671    100.00%    100.00% # Reads before turning the bus around for writes
system.mem_ctrls1.rdPerTurnAround::31744-32767            1      0.00%    100.00% # Reads before turning the bus around for writes
system.mem_ctrls1.rdPerTurnAround::total        79672                       # Reads before turning the bus around for writes
system.mem_ctrls1.wrPerTurnAround::samples        79672                       # Writes before turning the bus around for reads
system.mem_ctrls1.wrPerTurnAround::mean     17.151383                       # Writes before turning the bus around for reads
system.mem_ctrls1.wrPerTurnAround::gmean    17.118947                       # Writes before turning the bus around for reads
system.mem_ctrls1.wrPerTurnAround::stdev     1.053901                       # Writes before turning the bus around for reads
system.mem_ctrls1.wrPerTurnAround::16           34925     43.84%     43.84% # Writes before turning the bus around for reads
system.mem_ctrls1.wrPerTurnAround::17            1507      1.89%     45.73% # Writes before turning the bus around for reads
system.mem_ctrls1.wrPerTurnAround::18           39874     50.05%     95.78% # Writes before turning the bus around for reads
system.mem_ctrls1.wrPerTurnAround::19            3038      3.81%     99.59% # Writes before turning the bus around for reads
system.mem_ctrls1.wrPerTurnAround::20             286      0.36%     99.95% # Writes before turning the bus around for reads
system.mem_ctrls1.wrPerTurnAround::21              37      0.05%     99.99% # Writes before turning the bus around for reads
system.mem_ctrls1.wrPerTurnAround::22               4      0.01%    100.00% # Writes before turning the bus around for reads
system.mem_ctrls1.wrPerTurnAround::27               1      0.00%    100.00% # Writes before turning the bus around for reads
system.mem_ctrls1.wrPerTurnAround::total        79672                       # Writes before turning the bus around for reads
system.mem_ctrls1.totQLat                 97076249633                       # Total ticks spent queuing
system.mem_ctrls1.totMemAccLat           177781330883                       # Total ticks spent from burst creation until serviced by the DRAM
system.mem_ctrls1.totBusLat               21521355000                       # Total ticks spent in databus transfers
system.mem_ctrls1.avgQLat                    22553.47                       # Average queueing delay per DRAM burst
system.mem_ctrls1.avgBusLat                   5000.00                       # Average bus latency per DRAM burst
system.mem_ctrls1.avgMemAccLat               41303.47                       # Average memory access latency per DRAM burst
system.mem_ctrls1.avgRdBW                      136.86                       # Average DRAM read bandwidth in MiByte/s
system.mem_ctrls1.avgWrBW                       43.45                       # Average achieved write bandwidth in MiByte/s
system.mem_ctrls1.avgRdBWSys                   136.88                       # Average system read bandwidth in MiByte/s
system.mem_ctrls1.avgWrBWSys                    43.45                       # Average system write bandwidth in MiByte/s
system.mem_ctrls1.peakBW                     12800.00                       # Theoretical peak bandwidth in MiByte/s
system.mem_ctrls1.busUtil                        1.41                       # Data bus utilization in percentage
system.mem_ctrls1.busUtilRead                    1.07                       # Data bus utilization in percentage for reads
system.mem_ctrls1.busUtilWrite                   0.34                       # Data bus utilization in percentage for writes
system.mem_ctrls1.avgRdQLen                      1.02                       # Average read queue length when enqueuing
system.mem_ctrls1.avgWrQLen                     24.53                       # Average write queue length when enqueuing
system.mem_ctrls1.readRowHits                 2593726                       # Number of row buffer hits during reads
system.mem_ctrls1.writeRowHits                 392860                       # Number of row buffer hits during writes
system.mem_ctrls1.readRowHitRate                60.26                       # Row buffer hit rate for reads
system.mem_ctrls1.writeRowHitRate               28.75                       # Row buffer hit rate for writes
system.mem_ctrls1.avgGap                    354902.57                       # Average gap between requests
system.mem_ctrls1.pageHitRate                   52.67                       # Row buffer hit rate, read and write combined
system.mem_ctrls1_0.actEnergy              9643433940                       # Energy for activate commands per rank (pJ)
system.mem_ctrls1_0.preEnergy              5125580130                       # Energy for precharge commands per rank (pJ)
system.mem_ctrls1_0.readEnergy            15445969140                       # Energy for read commands per rank (pJ)
system.mem_ctrls1_0.writeEnergy            3602431620                       # Energy for write commands per rank (pJ)
system.mem_ctrls1_0.refreshEnergy        156377323440.000031                       # Energy for refresh commands per rank (pJ)
system.mem_ctrls1_0.actBackEnergy         96543404010                       # Energy for active background per rank (pJ)
system.mem_ctrls1_0.preBackEnergy          5591117760                       # Energy for precharge background per rank (pJ)
system.mem_ctrls1_0.actPowerDownEnergy   605339611830                       # Energy for active power-down per rank (pJ)
system.mem_ctrls1_0.prePowerDownEnergy   118968616800                       # Energy for precharge power-down per rank (pJ)
system.mem_ctrls1_0.selfRefreshEnergy     44752491795                       # Energy for self refresh per rank (pJ)
system.mem_ctrls1_0.totalEnergy          1061423036625                       # Total energy per rank (pJ)
system.mem_ctrls1_0.averagePower           527.345313                       # Core power per rank (mW)
system.mem_ctrls1_0.totalIdleTime        1786421087969                       # Total Idle time Per DRAM Rank
system.mem_ctrls1_0.memoryStateTime::IDLE   5721667479                       # Time in different power states
system.mem_ctrls1_0.memoryStateTime::REF  66250110000                       # Time in different power states
system.mem_ctrls1_0.memoryStateTime::SREF 149101600918                       # Time in different power states
system.mem_ctrls1_0.memoryStateTime::PRE_PDN 309815700316                       # Time in different power states
system.mem_ctrls1_0.memoryStateTime::ACT 154373554601                       # Time in different power states
system.mem_ctrls1_0.memoryStateTime::ACT_PDN 1327503951320                       # Time in different power states
system.mem_ctrls1_1.actEnergy              9521539860                       # Energy for activate commands per rank (pJ)
system.mem_ctrls1_1.preEnergy              5060807070                       # Energy for precharge commands per rank (pJ)
system.mem_ctrls1_1.readEnergy            15286525800                       # Energy for read commands per rank (pJ)
system.mem_ctrls1_1.writeEnergy            3530620080                       # Energy for write commands per rank (pJ)
system.mem_ctrls1_1.refreshEnergy        155833981680.000031                       # Energy for refresh commands per rank (pJ)
system.mem_ctrls1_1.actBackEnergy         96311376390                       # Energy for active background per rank (pJ)
system.mem_ctrls1_1.preBackEnergy          5630439840                       # Energy for precharge background per rank (pJ)
system.mem_ctrls1_1.actPowerDownEnergy   600006902730                       # Energy for active power-down per rank (pJ)
system.mem_ctrls1_1.prePowerDownEnergy   119593519200                       # Energy for precharge power-down per rank (pJ)
system.mem_ctrls1_1.selfRefreshEnergy     47540193165                       # Energy for self refresh per rank (pJ)
system.mem_ctrls1_1.totalEnergy          1058353506645                       # Total energy per rank (pJ)
system.mem_ctrls1_1.averagePower           525.820283                       # Core power per rank (mW)
system.mem_ctrls1_1.totalIdleTime        1786802478897                       # Total Idle time Per DRAM Rank
system.mem_ctrls1_1.memoryStateTime::IDLE   5876751780                       # Time in different power states
system.mem_ctrls1_1.memoryStateTime::REF  66023192000                       # Time in different power states
system.mem_ctrls1_1.memoryStateTime::SREF 159565131412                       # Time in different power states
system.mem_ctrls1_1.memoryStateTime::PRE_PDN 311436171967                       # Time in different power states
system.mem_ctrls1_1.memoryStateTime::ACT 154063925968                       # Time in different power states
system.mem_ctrls1_1.memoryStateTime::ACT_PDN 1315801411507                       # Time in different power states
system.pwrStateResidencyTicks::UNDEFINED 75282920385336                       # Cumulative time (in ticks) in various power states
system.cpu.branchPred.lookups                       2                       # Number of BP lookups
system.cpu.branchPred.condPredicted                 2                       # Number of conditional branches predicted
system.cpu.branchPred.condIncorrect                 1                       # Number of conditional branches incorrect
system.cpu.branchPred.BTBLookups                    0                       # Number of BTB lookups
system.cpu.branchPred.BTBHits                       0                       # Number of BTB hits
system.cpu.branchPred.BTBCorrect                    0                       # Number of correct BTB predictions (this stat may not work properly.
system.cpu.branchPred.BTBHitPct                   nan                       # BTB Hit Percentage
system.cpu.branchPred.usedRAS                       0                       # Number of times the RAS was used to get a target.
system.cpu.branchPred.RASInCorrect                  0                       # Number of incorrect RAS predictions.
system.cpu.branchPred.indirectLookups               0                       # Number of indirect predictor lookups.
system.cpu.branchPred.indirectHits                  0                       # Number of indirect target hits.
system.cpu.branchPred.indirectMisses                0                       # Number of indirect misses.
system.cpu.branchPredindirectMispredicted            0                       # Number of mispredicted indirect branches.
system.cpu_voltage_domain.voltage                   1                       # Voltage in Volts
system.cpu_clk_domain.clock                       333                       # Clock period in ticks
system.cpu.dtb.fetch_hits                           0                       # ITB hits
system.cpu.dtb.fetch_misses                         0                       # ITB misses
system.cpu.dtb.fetch_acv                            0                       # ITB acv
system.cpu.dtb.fetch_accesses                       0                       # ITB accesses
system.cpu.dtb.read_hits                           23                       # DTB read hits
system.cpu.dtb.read_misses                          0                       # DTB read misses
system.cpu.dtb.read_acv                             0                       # DTB read access violations
system.cpu.dtb.read_accesses                       23                       # DTB read accesses
system.cpu.dtb.write_hits                           3                       # DTB write hits
system.cpu.dtb.write_misses                         0                       # DTB write misses
system.cpu.dtb.write_acv                            0                       # DTB write access violations
system.cpu.dtb.write_accesses                       3                       # DTB write accesses
system.cpu.dtb.data_hits                           26                       # DTB hits
system.cpu.dtb.data_misses                          0                       # DTB misses
system.cpu.dtb.data_acv                             0                       # DTB access violations
system.cpu.dtb.data_accesses                       26                       # DTB accesses
system.cpu.itb.fetch_hits                           7                       # ITB hits
system.cpu.itb.fetch_misses                         0                       # ITB misses
system.cpu.itb.fetch_acv                            0                       # ITB acv
system.cpu.itb.fetch_accesses                       7                       # ITB accesses
system.cpu.itb.read_hits                            0                       # DTB read hits
system.cpu.itb.read_misses                          0                       # DTB read misses
system.cpu.itb.read_acv                             0                       # DTB read access violations
system.cpu.itb.read_accesses                        0                       # DTB read accesses
system.cpu.itb.write_hits                           0                       # DTB write hits
system.cpu.itb.write_misses                         0                       # DTB write misses
system.cpu.itb.write_acv                            0                       # DTB write access violations
system.cpu.itb.write_accesses                       0                       # DTB write accesses
system.cpu.itb.data_hits                            0                       # DTB hits
system.cpu.itb.data_misses                          0                       # DTB misses
system.cpu.itb.data_acv                             0                       # DTB access violations
system.cpu.itb.data_accesses                        0                       # DTB accesses
system.cpu.workload.num_syscalls                    0                       # Number of system calls
system.cpu.pwrStateResidencyTicks::ON    2012766584634                       # Cumulative time (in ticks) in various power states
system.cpu.numCycles                             1111                       # number of cpu cycles simulated
system.cpu.numWorkItemsStarted                      0                       # number of work items this cpu started
system.cpu.numWorkItemsCompleted                    0                       # number of work items this cpu completed
system.cpu.fetch.icacheStallCycles                 64                       # Number of cycles fetch is stalled on an Icache miss
system.cpu.fetch.Insts                             51                       # Number of instructions fetch has processed
system.cpu.fetch.Branches                           2                       # Number of branches that fetch encountered
system.cpu.fetch.Cycles                             7                       # Number of cycles fetch has run and was not squashing or blocked
system.cpu.fetch.SquashCycles                       5                       # Number of cycles fetch has spent squashing
system.cpu.fetch.PendingDrainCycles                10                       # Number of cycles fetch has spent waiting on pipes to drain
system.cpu.fetch.CacheLines                         7                       # Number of cache lines fetched
system.cpu.fetch.IcacheSquashes                     3                       # Number of outstanding Icache misses that were squashed
system.cpu.fetch.rateDist::samples                 83                       # Number of instructions fetched each cycle (Total)
system.cpu.fetch.rateDist::mean              0.614458                       # Number of instructions fetched each cycle (Total)
system.cpu.fetch.rateDist::stdev             2.076767                       # Number of instructions fetched each cycle (Total)
system.cpu.fetch.rateDist::underflows               0      0.00%      0.00% # Number of instructions fetched each cycle (Total)
system.cpu.fetch.rateDist::0                       76     91.57%     91.57% # Number of instructions fetched each cycle (Total)
system.cpu.fetch.rateDist::1                        0      0.00%     91.57% # Number of instructions fetched each cycle (Total)
system.cpu.fetch.rateDist::2                        0      0.00%     91.57% # Number of instructions fetched each cycle (Total)
system.cpu.fetch.rateDist::3                        0      0.00%     91.57% # Number of instructions fetched each cycle (Total)
[...]
system.switch_cpus_1.iq.int_inst_queue_writes    142180905                       # Number of integer instruction queue writes
system.switch_cpus_1.iq.int_inst_queue_wakeup_accesses    140179977                       # Number of integer instruction queue wakeup accesses
system.switch_cpus_1.iq.fp_inst_queue_reads    151030060                       # Number of floating instruction queue reads
system.switch_cpus_1.iq.fp_inst_queue_writes     62657465                       # Number of floating instruction queue writes
system.switch_cpus_1.iq.fp_inst_queue_wakeup_accesses     61348990                       # Number of floating instruction queue wakeup accesses
system.switch_cpus_1.iq.int_alu_accesses    154410412                       # Number of integer alu accesses
system.switch_cpus_1.iq.fp_alu_accesses      81349473                       # Number of floating point alu accesses
system.switch_cpus_1.iew.lsq.thread0.forwLoads      1463528                       # Number of loads that had data forwarded from stores
system.switch_cpus_1.iew.lsq.thread0.invAddrLoads            0                       # Number of loads ignored due to an invalid address
system.switch_cpus_1.iew.lsq.thread0.squashedLoads       802669                       # Number of loads squashed
system.switch_cpus_1.iew.lsq.thread0.ignoredResponses            0                       # Number of memory responses ignored because the instruction is squashed
system.switch_cpus_1.iew.lsq.thread0.memOrderViolation          353                       # Number of memory ordering violations
system.switch_cpus_1.iew.lsq.thread0.squashedStores       151791                       # Number of stores squashed
system.switch_cpus_1.iew.lsq.thread0.invAddrSwpfs            0                       # Number of software prefetches ignored due to an invalid address
system.switch_cpus_1.iew.lsq.thread0.blockedLoads            0                       # Number of blocked loads due to partial load-store forwarding
system.switch_cpus_1.iew.lsq.thread0.rescheduledLoads            0                       # Number of loads that were rescheduled
system.switch_cpus_1.iew.lsq.thread0.cacheBlocked     12210696                       # Number of times an access to memory failed due to the cache being blocked
system.switch_cpus_1.iew.iewIdleCycles              0                       # Number of cycles IEW is idle
system.switch_cpus_1.iew.iewSquashCycles        63509                       # Number of cycles IEW is squashing
system.switch_cpus_1.iew.iewBlockCycles      24893190                       # Number of cycles IEW is blocking
system.switch_cpus_1.iew.iewUnblockCycles     35747544                       # Number of cycles IEW is unblocking
system.switch_cpus_1.iew.iewDispatchedInsts    202486942                       # Number of instructions dispatched to IQ
system.switch_cpus_1.iew.iewDispSquashedInsts        65577                       # Number of squashed instructions skipped by dispatch
system.switch_cpus_1.iew.iewDispLoadInsts     68397068                       # Number of dispatched load instructions
system.switch_cpus_1.iew.iewDispStoreInsts     10464272                       # Number of dispatched store instructions
system.switch_cpus_1.iew.iewDispNonSpecInsts           86                       # Number of dispatched non-speculative instructions
system.switch_cpus_1.iew.iewIQFullEvents       230373                       # Number of times the IQ has become full, causing a stall
system.switch_cpus_1.iew.iewLSQFullEvents     35265447                       # Number of times the LSQ has become full, causing a stall
system.switch_cpus_1.iew.memOrderViolationEvents          353                       # Number of memory order violations
system.switch_cpus_1.iew.predictedTakenIncorrect        47595                       # Number of branches that were predicted taken incorrectly
system.switch_cpus_1.iew.predictedNotTakenIncorrect          438                       # Number of branches that were predicted not taken incorrectly
system.switch_cpus_1.iew.branchMispredicts        48033                       # Number of branch mispredicts detected at execute
system.switch_cpus_1.iew.iewExecutedInsts    213640526                       # Number of executed instructions
system.switch_cpus_1.iew.iewExecLoadInsts     80137125                       # Number of load instructions executed
system.switch_cpus_1.iew.iewExecSquashedInsts       115235                       # Number of squashed instructions skipped in execute
system.switch_cpus_1.iew.exec_swp                   0                       # number of swp insts executed
system.switch_cpus_1.iew.exec_nop               67890                       # number of nop insts executed
system.switch_cpus_1.iew.exec_refs           90491823                       # number of memory reference insts executed
system.switch_cpus_1.iew.exec_branches        5549974                       # Number of branches executed
system.switch_cpus_1.iew.exec_stores         10354698                       # Number of stores executed
system.switch_cpus_1.iew.exec_rate           0.737027                       # Inst execution rate
system.switch_cpus_1.iew.wb_sent            201663686                       # cumulative count of insts sent to commit
system.switch_cpus_1.iew.wb_count           201528967                       # cumulative count of insts written-back
system.switch_cpus_1.iew.wb_producers       139523277                       # num instructions producing a value
system.switch_cpus_1.iew.wb_consumers       153116557                       # num instructions consuming a value
system.switch_cpus_1.iew.wb_rate             0.695244                       # insts written-back per cycle
system.switch_cpus_1.iew.wb_fanout           0.911223                       # average fanout of values written-back
system.switch_cpus_1.commit.commitSquashedInsts      2363952                       # The number of squashed insts skipped by commit
system.switch_cpus_1.commit.commitNonSpecStalls          144                       # The number of times commit has been forced to stall to communicate backwards
system.switch_cpus_1.commit.branchMispredicts        47875                       # The number of times a branch was mispredicted
system.switch_cpus_1.commit.committed_per_cycle::samples    289533330                       # Number of insts commited each cycle
system.switch_cpus_1.commit.committed_per_cycle::mean     0.690969                       # Number of insts commited each cycle
system.switch_cpus_1.commit.committed_per_cycle::stdev     2.105218                       # Number of insts commited each cycle
system.switch_cpus_1.commit.committed_per_cycle::underflows            0      0.00%      0.00% # Number of insts commited each cycle
system.switch_cpus_1.commit.committed_per_cycle::0    253681968     87.62%     87.62% # Number of insts commited each cycle
system.switch_cpus_1.commit.committed_per_cycle::1      7481967      2.58%     90.20% # Number of insts commited each cycle
system.switch_cpus_1.commit.committed_per_cycle::2      1479699      0.51%     90.71% # Number of insts commited each cycle
system.switch_cpus_1.commit.committed_per_cycle::3      1606951      0.56%     91.27% # Number of insts commited each cycle
system.switch_cpus_1.commit.committed_per_cycle::4      2157632      0.75%     92.01% # Number of insts commited each cycle
system.switch_cpus_1.commit.committed_per_cycle::5      1481721      0.51%     92.52% # Number of insts commited each cycle
system.switch_cpus_1.commit.committed_per_cycle::6      1335684      0.46%     92.99% # Number of insts commited each cycle
system.switch_cpus_1.commit.committed_per_cycle::7      1718448      0.59%     93.58% # Number of insts commited each cycle
system.switch_cpus_1.commit.committed_per_cycle::8     18589260      6.42%    100.00% # Number of insts commited each cycle
system.switch_cpus_1.commit.committed_per_cycle::overflows            0      0.00%    100.00% # Number of insts commited each cycle
system.switch_cpus_1.commit.committed_per_cycle::min_value            0                       # Number of insts commited each cycle
system.switch_cpus_1.commit.committed_per_cycle::max_value            8                       # Number of insts commited each cycle
system.switch_cpus_1.commit.committed_per_cycle::total    289533330                       # Number of insts commited each cycle
system.switch_cpus_1.commit.committedInsts    200058671                       # Number of instructions committed
system.switch_cpus_1.commit.committedOps    200058671                       # Number of ops (including micro ops) committed
system.switch_cpus_1.commit.swp_count               0                       # Number of s/w prefetches committed
system.switch_cpus_1.commit.refs             77906848                       # Number of memory references committed
system.switch_cpus_1.commit.loads            67594371                       # Number of loads committed
system.switch_cpus_1.commit.membars                72                       # Number of memory barriers committed
system.switch_cpus_1.commit.branches          5447366                       # Number of branches committed
system.switch_cpus_1.commit.fp_insts         61032861                       # Number of committed floating point instructions.
system.switch_cpus_1.commit.int_insts       169602469                       # Number of committed integer instructions.
system.switch_cpus_1.commit.function_calls           74                       # Number of function calls committed.
system.switch_cpus_1.commit.op_class_0::No_OpClass        58667      0.03%      0.03% # Class of committed instruction
system.switch_cpus_1.commit.op_class_0::IntAlu     69024585     34.50%     34.53% # Class of committed instruction
system.switch_cpus_1.commit.op_class_0::IntMult     22692429     11.34%     45.87% # Class of committed instruction
system.switch_cpus_1.commit.op_class_0::IntDiv            0      0.00%     45.87% # Class of committed instruction
system.switch_cpus_1.commit.op_class_0::FloatAdd     15421069      7.71%     53.58% # Class of committed instruction
system.switch_cpus_1.commit.op_class_0::FloatCmp            0      0.00%     53.58% # Class of committed instruction
system.switch_cpus_1.commit.op_class_0::FloatCvt         3010      0.00%     53.58% # Class of committed instruction
system.switch_cpus_1.commit.op_class_0::FloatMult     13619855      6.81%     60.39% # Class of committed instruction
system.switch_cpus_1.commit.op_class_0::FloatMultAcc            0      0.00%     60.39% # Class of committed instruction
system.switch_cpus_1.commit.op_class_0::FloatDiv      1151536      0.58%     60.97% # Class of committed instruction
system.switch_cpus_1.commit.op_class_0::FloatMisc            0      0.00%     60.97% # Class of committed instruction
system.switch_cpus_1.commit.op_class_0::FloatSqrt       180600      0.09%     61.06% # Class of committed instruction
system.switch_cpus_1.commit.op_class_0::SimdAdd            0      0.00%     61.06% # Class of committed instruction
system.switch_cpus_1.commit.op_class_0::SimdAddAcc            0      0.00%     61.06% # Class of committed instruction
system.switch_cpus_1.commit.op_class_0::SimdAlu            0      0.00%     61.06% # Class of committed instruction
system.switch_cpus_1.commit.op_class_0::SimdCmp            0      0.00%     61.06% # Class of committed instruction
system.switch_cpus_1.commit.op_class_0::SimdCvt            0      0.00%     61.06% # Class of committed instruction
system.switch_cpus_1.commit.op_class_0::SimdMisc            0      0.00%     61.06% # Class of committed instruction
system.switch_cpus_1.commit.op_class_0::SimdMult            0      0.00%     61.06% # Class of committed instruction
system.switch_cpus_1.commit.op_class_0::SimdMultAcc            0      0.00%     61.06% # Class of committed instruction
system.switch_cpus_1.commit.op_class_0::SimdShift            0      0.00%     61.06% # Class of committed instruction
system.switch_cpus_1.commit.op_class_0::SimdShiftAcc            0      0.00%     61.06% # Class of committed instruction
system.switch_cpus_1.commit.op_class_0::SimdSqrt            0      0.00%     61.06% # Class of committed instruction
system.switch_cpus_1.commit.op_class_0::SimdFloatAdd            0      0.00%     61.06% # Class of committed instruction
system.switch_cpus_1.commit.op_class_0::SimdFloatAlu            0      0.00%     61.06% # Class of committed instruction
system.switch_cpus_1.commit.op_class_0::SimdFloatCmp            0      0.00%     61.06% # Class of committed instruction
system.switch_cpus_1.commit.op_class_0::SimdFloatCvt            0      0.00%     61.06% # Class of committed instruction
system.switch_cpus_1.commit.op_class_0::SimdFloatDiv            0      0.00%     61.06% # Class of committed instruction
system.switch_cpus_1.commit.op_class_0::SimdFloatMisc            0      0.00%     61.06% # Class of committed instruction
system.switch_cpus_1.commit.op_class_0::SimdFloatMult            0      0.00%     61.06% # Class of committed instruction
system.switch_cpus_1.commit.op_class_0::SimdFloatMultAcc            0      0.00%     61.06% # Class of committed instruction
system.switch_cpus_1.commit.op_class_0::SimdFloatSqrt            0      0.00%     61.06% # Class of committed instruction
system.switch_cpus_1.commit.op_class_0::MemRead     44149715     22.07%     83.13% # Class of committed instruction
system.switch_cpus_1.commit.op_class_0::MemWrite      3100414      1.55%     84.68% # Class of committed instruction
system.switch_cpus_1.commit.op_class_0::FloatMemRead     23444728     11.72%     96.40% # Class of committed instruction
system.switch_cpus_1.commit.op_class_0::FloatMemWrite      7212063      3.60%    100.00% # Class of committed instruction
system.switch_cpus_1.commit.op_class_0::IprAccess            0      0.00%    100.00% # Class of committed instruction
system.switch_cpus_1.commit.op_class_0::InstPrefetch            0      0.00%    100.00% # Class of committed instruction
system.switch_cpus_1.commit.op_class_0::total    200058671                       # Class of committed instruction
system.switch_cpus_1.commit.bw_lim_events     18589260                       # number cycles where commit BW limit reached
system.switch_cpus_1.rob.rob_reads          473167520                       # The number of ROB reads
system.switch_cpus_1.rob.rob_writes         405164913                       # The number of ROB writes
system.switch_cpus_1.timesIdled                   104                       # Number of times that the entire CPU went into an idle state and unscheduled itself
system.switch_cpus_1.idleCycles                 14992                       # Total number of cycles that the CPU has spent unscheduled due to idling
system.switch_cpus_1.committedInsts         200000004                       # Number of Instructions Simulated
system.switch_cpus_1.committedOps           200000004                       # Number of Ops (including micro ops) Simulated
system.switch_cpus_1.cpi                     1.449339                       # CPI: Cycles Per Instruction
system.switch_cpus_1.cpi_total               1.449339                       # CPI: Total CPI of All Threads
system.switch_cpus_1.ipc                     0.689969                       # IPC: Instructions Per Cycle
system.switch_cpus_1.ipc_total               0.689969                       # IPC: Total IPC of All Threads
system.switch_cpus_1.int_regfile_reads      260175626                       # number of integer regfile reads
system.switch_cpus_1.int_regfile_writes     131551298                       # number of integer regfile writes
system.switch_cpus_1.fp_regfile_reads        68055949                       # number of floating regfile reads
system.switch_cpus_1.fp_regfile_writes       54127564                       # number of floating regfile writes
system.switch_cpus_1.misc_regfile_reads           162                       # number of misc regfile reads
system.switch_cpus_1.misc_regfile_writes          144                       # number of misc regfile writes
system.tol3bus.snoop_filter.tot_requests     21501560                       # Total number of requests made to the snoop filter.
system.tol3bus.snoop_filter.hit_single_requests     10748473                       # Number of requests hitting in the snoop filter with a single holder of the requested data.
system.tol3bus.snoop_filter.hit_multi_requests            0                       # Number of requests hitting in the snoop filter with multiple (>1) holders of the requested data.
system.tol3bus.snoop_filter.tot_snoops          58674                       # Total number of snoops made to the snoop filter.
system.tol3bus.snoop_filter.hit_single_snoops        58674                       # Number of snoops hitting in the snoop filter with a single holder of the requested data.
system.tol3bus.snoop_filter.hit_multi_snoops            0                       # Number of snoops hitting in the snoop filter with multiple (>1) holders of the requested data.
system.tol3bus.pwrStateResidencyTicks::UNDEFINED 75282920385336                       # Cumulative time (in ticks) in various power states
system.tol3bus.trans_dist::ReadResp           8306215                       # Transaction distribution
system.tol3bus.trans_dist::WritebackDirty      6013718                       # Transaction distribution
system.tol3bus.trans_dist::CleanEvict        13281675                       # Transaction distribution
system.tol3bus.trans_dist::ReadExReq          2446872                       # Transaction distribution
system.tol3bus.trans_dist::ReadExResp         2446870                       # Transaction distribution
system.tol3bus.trans_dist::ReadSharedReq      8306215                       # Transaction distribution
system.tol3bus.pkt_count_system.cpu.l2.mem_side::system.l3.cpu_side     32254645                       # Packet count per connected master and slave (bytes)
system.tol3bus.pkt_size_system.cpu.l2.mem_side::system.l3.cpu_side    898199552                       # Cumulative packet size per connected master and slave (bytes)
system.tol3bus.snoops                         8546920                       # Total snoops (count)
system.tol3bus.snoopTraffic                 174875840                       # Total snoop traffic (bytes)
system.tol3bus.snoop_fanout::samples         19300007                       # Request fanout histogram
system.tol3bus.snoop_fanout::mean            0.003040                       # Request fanout histogram
system.tol3bus.snoop_fanout::stdev           0.055053                       # Request fanout histogram
system.tol3bus.snoop_fanout::underflows             0      0.00%      0.00% # Request fanout histogram
system.tol3bus.snoop_fanout::0               19241333     99.70%     99.70% # Request fanout histogram
system.tol3bus.snoop_fanout::1                  58674      0.30%    100.00% # Request fanout histogram
system.tol3bus.snoop_fanout::overflows              0      0.00%    100.00% # Request fanout histogram
system.tol3bus.snoop_fanout::min_value              0                       # Request fanout histogram
system.tol3bus.snoop_fanout::max_value              1                       # Request fanout histogram
system.tol3bus.snoop_fanout::total           19300007                       # Request fanout histogram
system.tol3bus.reqLayer0.occupancy         8252686719                       # Layer occupancy (ticks)
system.tol3bus.reqLayer0.utilization              0.4                       # Layer utilization (%)
system.tol3bus.respLayer0.occupancy        7161554610                       # Layer occupancy (ticks)
system.tol3bus.respLayer0.utilization             0.4                       # Layer utilization (%)

---------- End Simulation Statistics   ----------
