
---------- Begin Simulation Statistics ----------
sim_seconds                                  1.155933                       # Number of seconds simulated
sim_ticks                                1155933246663                       # Number of ticks simulated
final_tick                               71180398125558                       # Number of ticks from beginning of simulation (restored from checkpoints and never reset)
sim_freq                                 1000000000000                       # Frequency of simulated ticks
host_inst_rate                                 441012                       # Simulator instruction rate (inst/s)
host_op_rate                                   441012                       # Simulator op (including micro ops) rate (op/s)
host_tick_rate                              339853340                       # Simulator tick rate (ticks/s)
host_mem_usage                                2427556                       # Number of bytes of host memory used
host_seconds                                  3401.27                       # Real time elapsed on the host
sim_insts                                  1500000012                       # Number of instructions simulated
sim_ops                                    1500000012                       # Number of ops (including micro ops) simulated
system.voltage_domain.voltage                       1                       # Voltage in Volts
system.clk_domain.clock                          1000                       # Clock period in ticks
system.mem_ctrls0.pwrStateResidencyTicks::UNDEFINED 71180398125558                       # Cumulative time (in ticks) in various power states
system.mem_ctrls0.bytes_read::cpu.inst             64                       # Number of bytes read from this memory
system.mem_ctrls0.bytes_read::cpu.data            128                       # Number of bytes read from this memory
system.mem_ctrls0.bytes_read::switch_cpus.inst       366720                       # Number of bytes read from this memory
system.mem_ctrls0.bytes_read::switch_cpus.data     11554304                       # Number of bytes read from this memory
system.mem_ctrls0.bytes_read::switch_cpus_1.inst       235200                       # Number of bytes read from this memory
system.mem_ctrls0.bytes_read::switch_cpus_1.data      6142464                       # Number of bytes read from this memory
system.mem_ctrls0.bytes_read::total          18298880                       # Number of bytes read from this memory
system.mem_ctrls0.bytes_inst_read::cpu.inst           64                       # Number of instructions bytes read from this memory
system.mem_ctrls0.bytes_inst_read::switch_cpus.inst       366720                       # Number of instructions bytes read from this memory
system.mem_ctrls0.bytes_inst_read::switch_cpus_1.inst       235200                       # Number of instructions bytes read from this memory
system.mem_ctrls0.bytes_inst_read::total       601984                       # Number of instructions bytes read from this memory
system.mem_ctrls0.bytes_written::writebacks      2547840                       # Number of bytes written to this memory
system.mem_ctrls0.bytes_written::total        2547840                       # Number of bytes written to this memory
system.mem_ctrls0.num_reads::cpu.inst               1                       # Number of read requests responded to by this memory
system.mem_ctrls0.num_reads::cpu.data               2                       # Number of read requests responded to by this memory
system.mem_ctrls0.num_reads::switch_cpus.inst         5730                       # Number of read requests responded to by this memory
system.mem_ctrls0.num_reads::switch_cpus.data       180536                       # Number of read requests responded to by this memory
system.mem_ctrls0.num_reads::switch_cpus_1.inst         3675                       # Number of read requests responded to by this memory
system.mem_ctrls0.num_reads::switch_cpus_1.data        95976                       # Number of read requests responded to by this memory
system.mem_ctrls0.num_reads::total             285920                       # Number of read requests responded to by this memory
system.mem_ctrls0.num_writes::writebacks        39810                       # Number of write requests responded to by this memory
system.mem_ctrls0.num_writes::total             39810                       # Number of write requests responded to by this memory
system.mem_ctrls0.bw_read::cpu.inst                55                       # Total read bandwidth from this memory (bytes/s)
system.mem_ctrls0.bw_read::cpu.data               111                       # Total read bandwidth from this memory (bytes/s)
system.mem_ctrls0.bw_read::switch_cpus.inst       317250                       # Total read bandwidth from this memory (bytes/s)
system.mem_ctrls0.bw_read::switch_cpus.data      9995650                       # Total read bandwidth from this memory (bytes/s)
system.mem_ctrls0.bw_read::switch_cpus_1.inst       203472                       # Total read bandwidth from this memory (bytes/s)
system.mem_ctrls0.bw_read::switch_cpus_1.data      5313857                       # Total read bandwidth from this memory (bytes/s)
system.mem_ctrls0.bw_read::total             15830395                       # Total read bandwidth from this memory (bytes/s)
system.mem_ctrls0.bw_inst_read::cpu.inst           55                       # Instruction read bandwidth from this memory (bytes/s)
system.mem_ctrls0.bw_inst_read::switch_cpus.inst       317250                       # Instruction read bandwidth from this memory (bytes/s)
system.mem_ctrls0.bw_inst_read::switch_cpus_1.inst       203472                       # Instruction read bandwidth from this memory (bytes/s)
system.mem_ctrls0.bw_inst_read::total          520777                       # Instruction read bandwidth from this memory (bytes/s)
system.mem_ctrls0.bw_write::writebacks        2204141                       # Write bandwidth from this memory (bytes/s)
system.mem_ctrls0.bw_write::total             2204141                       # Write bandwidth from this memory (bytes/s)
system.mem_ctrls0.bw_total::writebacks        2204141                       # Total bandwidth to/from this memory (bytes/s)
system.mem_ctrls0.bw_total::cpu.inst               55                       # Total bandwidth to/from this memory (bytes/s)
system.mem_ctrls0.bw_total::cpu.data              111                       # Total bandwidth to/from this memory (bytes/s)
system.mem_ctrls0.bw_total::switch_cpus.inst       317250                       # Total bandwidth to/from this memory (bytes/s)
system.mem_ctrls0.bw_total::switch_cpus.data      9995650                       # Total bandwidth to/from this memory (bytes/s)
system.mem_ctrls0.bw_total::switch_cpus_1.inst       203472                       # Total bandwidth to/from this memory (bytes/s)
system.mem_ctrls0.bw_total::switch_cpus_1.data      5313857                       # Total bandwidth to/from this memory (bytes/s)
system.mem_ctrls0.bw_total::total            18034536                       # Total bandwidth to/from this memory (bytes/s)
system.mem_ctrls0.readReqs                     285920                       # Number of read requests accepted
system.mem_ctrls0.writeReqs                     39810                       # Number of write requests accepted
system.mem_ctrls0.readBursts                   285920                       # Number of DRAM read bursts, including those serviced by the write queue
system.mem_ctrls0.writeBursts                   39810                       # Number of DRAM write bursts, including those merged in the write queue
system.mem_ctrls0.bytesReadDRAM              18286784                       # Total number of bytes read from DRAM
system.mem_ctrls0.bytesReadWrQ                  12096                       # Total number of bytes read from write queue
system.mem_ctrls0.bytesWritten                2545856                       # Total number of bytes written to DRAM
system.mem_ctrls0.bytesReadSys               18298880                       # Total read bytes from the system interface side
system.mem_ctrls0.bytesWrittenSys             2547840                       # Total written bytes from the system interface side
system.mem_ctrls0.servicedByWrQ                   189                       # Number of DRAM read bursts serviced by the write queue
system.mem_ctrls0.mergedWrBursts                    0                       # Number of DRAM write bursts merged with an existing one
system.mem_ctrls0.neitherReadNorWriteReqs            0                       # Number of requests that are neither read nor write
system.mem_ctrls0.perBankRdBursts::0            16827                       # Per bank write bursts
system.mem_ctrls0.perBankRdBursts::1            17343                       # Per bank write bursts
system.mem_ctrls0.perBankRdBursts::2            20718                       # Per bank write bursts
system.mem_ctrls0.perBankRdBursts::3            18167                       # Per bank write bursts
system.mem_ctrls0.perBankRdBursts::4            17845                       # Per bank write bursts
system.mem_ctrls0.perBankRdBursts::5            16936                       # Per bank write bursts
system.mem_ctrls0.perBankRdBursts::6            16254                       # Per bank write bursts
system.mem_ctrls0.perBankRdBursts::7            17168                       # Per bank write bursts
system.mem_ctrls0.perBankRdBursts::8            16887                       # Per bank write bursts
system.mem_ctrls0.perBankRdBursts::9            17047                       # Per bank write bursts
system.mem_ctrls0.perBankRdBursts::10           17898                       # Per bank write bursts
system.mem_ctrls0.perBankRdBursts::11           16450                       # Per bank write bursts
system.mem_ctrls0.perBankRdBursts::12           21488                       # Per bank write bursts
system.mem_ctrls0.perBankRdBursts::13           19063                       # Per bank write bursts
system.mem_ctrls0.perBankRdBursts::14           17562                       # Per bank write bursts
system.mem_ctrls0.perBankRdBursts::15           18078                       # Per bank write bursts
system.mem_ctrls0.perBankWrBursts::0             1612                       # Per bank write bursts
system.mem_ctrls0.perBankWrBursts::1             2181                       # Per bank write bursts
system.mem_ctrls0.perBankWrBursts::2             2763                       # Per bank write bursts
system.mem_ctrls0.perBankWrBursts::3             2406                       # Per bank write bursts
system.mem_ctrls0.perBankWrBursts::4             2306                       # Per bank write bursts
system.mem_ctrls0.perBankWrBursts::5             1945                       # Per bank write bursts
system.mem_ctrls0.perBankWrBursts::6             2100                       # Per bank write bursts
system.mem_ctrls0.perBankWrBursts::7             2641                       # Per bank write bursts
system.mem_ctrls0.perBankWrBursts::8             2658                       # Per bank write bursts
system.mem_ctrls0.perBankWrBursts::9             2110                       # Per bank write bursts
system.mem_ctrls0.perBankWrBursts::10            3031                       # Per bank write bursts
system.mem_ctrls0.perBankWrBursts::11            2726                       # Per bank write bursts
system.mem_ctrls0.perBankWrBursts::12            3280                       # Per bank write bursts
system.mem_ctrls0.perBankWrBursts::13            2772                       # Per bank write bursts
system.mem_ctrls0.perBankWrBursts::14            2887                       # Per bank write bursts
system.mem_ctrls0.perBankWrBursts::15            2361                       # Per bank write bursts
system.mem_ctrls0.numRdRetry                        0                       # Number of times read queue was full causing retry
system.mem_ctrls0.numWrRetry                        0                       # Number of times write queue was full causing retry
system.mem_ctrls0.totGap                 1155887747208                       # Total gap between requests
system.mem_ctrls0.readPktSize::0                    0                       # Read request sizes (log2)
system.mem_ctrls0.readPktSize::1                    0                       # Read request sizes (log2)
system.mem_ctrls0.readPktSize::2                    0                       # Read request sizes (log2)
system.mem_ctrls0.readPktSize::3                    0                       # Read request sizes (log2)
system.mem_ctrls0.readPktSize::4                    0                       # Read request sizes (log2)
system.mem_ctrls0.readPktSize::5                    0                       # Read request sizes (log2)
system.mem_ctrls0.readPktSize::6               285920                       # Read request sizes (log2)
system.mem_ctrls0.writePktSize::0                   0                       # Write request sizes (log2)
system.mem_ctrls0.writePktSize::1                   0                       # Write request sizes (log2)
system.mem_ctrls0.writePktSize::2                   0                       # Write request sizes (log2)
system.mem_ctrls0.writePktSize::3                   0                       # Write request sizes (log2)
system.mem_ctrls0.writePktSize::4                   0                       # Write request sizes (log2)
system.mem_ctrls0.writePktSize::5                   0                       # Write request sizes (log2)
system.mem_ctrls0.writePktSize::6               39810                       # Write request sizes (log2)
system.mem_ctrls0.rdQLenPdf::0                 280080                       # What read queue length does an incoming req see
system.mem_ctrls0.rdQLenPdf::1                   5496                       # What read queue length does an incoming req see
system.mem_ctrls0.rdQLenPdf::2                    141                       # What read queue length does an incoming req see
system.mem_ctrls0.rdQLenPdf::3                     13                       # What read queue length does an incoming req see
system.mem_ctrls0.rdQLenPdf::4                      1                       # What read queue length does an incoming req see
system.mem_ctrls0.rdQLenPdf::5                      0                       # What read queue length does an incoming req see
system.mem_ctrls0.rdQLenPdf::6                      0                       # What read queue length does an incoming req see
system.mem_ctrls0.rdQLenPdf::7                      0                       # What read queue length does an incoming req see
system.mem_ctrls0.rdQLenPdf::8                      0                       # What read queue length does an incoming req see
system.mem_ctrls0.rdQLenPdf::9                      0                       # What read queue length does an incoming req see
system.mem_ctrls0.rdQLenPdf::10                     0                       # What read queue length does an incoming req see
system.mem_ctrls0.rdQLenPdf::11                     0                       # What read queue length does an incoming req see
system.mem_ctrls0.rdQLenPdf::12                     0                       # What read queue length does an incoming req see
system.mem_ctrls0.rdQLenPdf::13                     0                       # What read queue length does an incoming req see
system.mem_ctrls0.rdQLenPdf::14                     0                       # What read queue length does an incoming req see
system.mem_ctrls0.rdQLenPdf::15                     0                       # What read queue length does an incoming req see
system.mem_ctrls0.rdQLenPdf::16                     0                       # What read queue length does an incoming req see
system.mem_ctrls0.rdQLenPdf::17                     0                       # What read queue length does an incoming req see
system.mem_ctrls0.rdQLenPdf::18                     0                       # What read queue length does an incoming req see
system.mem_ctrls0.rdQLenPdf::19                     0                       # What read queue length does an incoming req see
system.mem_ctrls0.rdQLenPdf::20                     0                       # What read queue length does an incoming req see
system.mem_ctrls0.rdQLenPdf::21                     0                       # What read queue length does an incoming req see
system.mem_ctrls0.rdQLenPdf::22                     0                       # What read queue length does an incoming req see
system.mem_ctrls0.rdQLenPdf::23                     0                       # What read queue length does an incoming req see
system.mem_ctrls0.rdQLenPdf::24                     0                       # What read queue length does an incoming req see
system.mem_ctrls0.rdQLenPdf::25                     0                       # What read queue length does an incoming req see
system.mem_ctrls0.rdQLenPdf::26                     0                       # What read queue length does an incoming req see
system.mem_ctrls0.rdQLenPdf::27                     0                       # What read queue length does an incoming req see
system.mem_ctrls0.rdQLenPdf::28                     0                       # What read queue length does an incoming req see
system.mem_ctrls0.rdQLenPdf::29                     0                       # What read queue length does an incoming req see
system.mem_ctrls0.rdQLenPdf::30                     0                       # What read queue length does an incoming req see
system.mem_ctrls0.rdQLenPdf::31                     0                       # What read queue length does an incoming req see
system.mem_ctrls0.wrQLenPdf::0                      2                       # What write queue length does an incoming req see
system.mem_ctrls0.wrQLenPdf::1                      2                       # What write queue length does an incoming req see
system.mem_ctrls0.wrQLenPdf::2                      2                       # What write queue length does an incoming req see
system.mem_ctrls0.wrQLenPdf::3                      2                       # What write queue length does an incoming req see
system.mem_ctrls0.wrQLenPdf::4                      2                       # What write queue length does an incoming req see
system.mem_ctrls0.wrQLenPdf::5                      2                       # What write queue length does an incoming req see
system.mem_ctrls0.wrQLenPdf::6                      2                       # What write queue length does an incoming req see
system.mem_ctrls0.wrQLenPdf::7                      2                       # What write queue length does an incoming req see
system.mem_ctrls0.wrQLenPdf::8                      2                       # What write queue length does an incoming req see
system.mem_ctrls0.wrQLenPdf::9                      2                       # What write queue length does an incoming req see
system.mem_ctrls0.wrQLenPdf::10                     2                       # What write queue length does an incoming req see
system.mem_ctrls0.wrQLenPdf::11                     2                       # What write queue length does an incoming req see
system.mem_ctrls0.wrQLenPdf::12                     2                       # What write queue length does an incoming req see
system.mem_ctrls0.wrQLenPdf::13                     2                       # What write queue length does an incoming req see
system.mem_ctrls0.wrQLenPdf::14                     2                       # What write queue length does an incoming req see
system.mem_ctrls0.wrQLenPdf::15                  1627                       # What write queue length does an incoming req see
system.mem_ctrls0.wrQLenPdf::16                  1699                       # What write queue length does an incoming req see
system.mem_ctrls0.wrQLenPdf::17                  2273                       # What write queue length does an incoming req see
system.mem_ctrls0.wrQLenPdf::18                  2278                       # What write queue length does an incoming req see
system.mem_ctrls0.wrQLenPdf::19                  2280                       # What write queue length does an incoming req see
system.mem_ctrls0.wrQLenPdf::20                  2281                       # What write queue length does an incoming req see
system.mem_ctrls0.wrQLenPdf::21                  2279                       # What write queue length does an incoming req see
system.mem_ctrls0.wrQLenPdf::22                  2279                       # What write queue length does an incoming req see
system.mem_ctrls0.wrQLenPdf::23                  2278                       # What write queue length does an incoming req see
system.mem_ctrls0.wrQLenPdf::24                  2278                       # What write queue length does an incoming req see
system.mem_ctrls0.wrQLenPdf::25                  2281                       # What write queue length does an incoming req see
system.mem_ctrls0.wrQLenPdf::26                  2278                       # What write queue length does an incoming req see
system.mem_ctrls0.wrQLenPdf::27                  2278                       # What write queue length does an incoming req see
system.mem_ctrls0.wrQLenPdf::28                  2277                       # What write queue length does an incoming req see
system.mem_ctrls0.wrQLenPdf::29                  2279                       # What write queue length does an incoming req see
system.mem_ctrls0.wrQLenPdf::30                  2280                       # What write queue length does an incoming req see
system.mem_ctrls0.wrQLenPdf::31                  2276                       # What write queue length does an incoming req see
system.mem_ctrls0.wrQLenPdf::32                  2277                       # What write queue length does an incoming req see
system.mem_ctrls0.wrQLenPdf::33                     2                       # What write queue length does an incoming req see
system.mem_ctrls0.wrQLenPdf::34                     0                       # What write queue length does an incoming req see
system.mem_ctrls0.wrQLenPdf::35                     0                       # What write queue length does an incoming req see
system.mem_ctrls0.wrQLenPdf::36                     0                       # What write queue length does an incoming req see
system.mem_ctrls0.wrQLenPdf::37                     0                       # What write queue length does an incoming req see
system.mem_ctrls0.wrQLenPdf::38                     0                       # What write queue length does an incoming req see
system.mem_ctrls0.wrQLenPdf::39                     0                       # What write queue length does an incoming req see
system.mem_ctrls0.wrQLenPdf::40                     0                       # What write queue length does an incoming req see
system.mem_ctrls0.wrQLenPdf::41                     0                       # What write queue length does an incoming req see
system.mem_ctrls0.wrQLenPdf::42                     0                       # What write queue length does an incoming req see
system.mem_ctrls0.wrQLenPdf::43                     0                       # What write queue length does an incoming req see
system.mem_ctrls0.wrQLenPdf::44                     0                       # What write queue length does an incoming req see
system.mem_ctrls0.wrQLenPdf::45                     0                       # What write queue length does an incoming req see
system.mem_ctrls0.wrQLenPdf::46                     0                       # What write queue length does an incoming req see
system.mem_ctrls0.wrQLenPdf::47                     0                       # What write queue length does an incoming req see
system.mem_ctrls0.wrQLenPdf::48                     0                       # What write queue length does an incoming req see
system.mem_ctrls0.wrQLenPdf::49                     0                       # What write queue length does an incoming req see
system.mem_ctrls0.wrQLenPdf::50                     0                       # What write queue length does an incoming req see
system.mem_ctrls0.wrQLenPdf::51                     0                       # What write queue length does an incoming req see
system.mem_ctrls0.wrQLenPdf::52                     0                       # What write queue length does an incoming req see
system.mem_ctrls0.wrQLenPdf::53                     0                       # What write queue length does an incoming req see
system.mem_ctrls0.wrQLenPdf::54                     0                       # What write queue length does an incoming req see
system.mem_ctrls0.wrQLenPdf::55                     0                       # What write queue length does an incoming req see
system.mem_ctrls0.wrQLenPdf::56                     0                       # What write queue length does an incoming req see
system.mem_ctrls0.wrQLenPdf::57                     0                       # What write queue length does an incoming req see
system.mem_ctrls0.wrQLenPdf::58                     0                       # What write queue length does an incoming req see
system.mem_ctrls0.wrQLenPdf::59                     0                       # What write queue length does an incoming req see
system.mem_ctrls0.wrQLenPdf::60                     0                       # What write queue length does an incoming req see
system.mem_ctrls0.wrQLenPdf::61                     0                       # What write queue length does an incoming req see
system.mem_ctrls0.wrQLenPdf::62                     0                       # What write queue length does an incoming req see
system.mem_ctrls0.wrQLenPdf::63                     0                       # What write queue length does an incoming req see
system.mem_ctrls0.bytesPerActivate::samples       172703                       # Bytes accessed per row activation
system.mem_ctrls0.bytesPerActivate::mean   120.626972                       # Bytes accessed per row activation
system.mem_ctrls0.bytesPerActivate::gmean    91.401730                       # Bytes accessed per row activation
system.mem_ctrls0.bytesPerActivate::stdev   133.674003                       # Bytes accessed per row activation
system.mem_ctrls0.bytesPerActivate::0-127       120206     69.60%     69.60% # Bytes accessed per row activation
system.mem_ctrls0.bytesPerActivate::128-255        33358     19.32%     88.92% # Bytes accessed per row activation
system.mem_ctrls0.bytesPerActivate::256-383         8997      5.21%     94.13% # Bytes accessed per row activation
system.mem_ctrls0.bytesPerActivate::384-511         4283      2.48%     96.61% # Bytes accessed per row activation
system.mem_ctrls0.bytesPerActivate::512-639         2477      1.43%     98.04% # Bytes accessed per row activation
system.mem_ctrls0.bytesPerActivate::640-767         1453      0.84%     98.88% # Bytes accessed per row activation
system.mem_ctrls0.bytesPerActivate::768-895          877      0.51%     99.39% # Bytes accessed per row activation
system.mem_ctrls0.bytesPerActivate::896-1023          492      0.28%     99.68% # Bytes accessed per row activation
system.mem_ctrls0.bytesPerActivate::1024-1151          560      0.32%    100.00% # Bytes accessed per row activation
system.mem_ctrls0.bytesPerActivate::total       172703                       # Bytes accessed per row activation
system.mem_ctrls0.rdPerTurnAround::samples         2277                       # Reads before turning the bus around for writes
system.mem_ctrls0.rdPerTurnAround::mean    125.453667                       # Reads before turning the bus around for writes
system.mem_ctrls0.rdPerTurnAround::gmean   108.657421                       # Reads before turning the bus around for writes
system.mem_ctrls0.rdPerTurnAround::stdev   555.949873                       # Reads before turning the bus around for writes
system.mem_ctrls0.rdPerTurnAround::0-1023         2276     99.96%     99.96% # Reads before turning the bus around for writes
system.mem_ctrls0.rdPerTurnAround::25600-26623            1      0.04%    100.00% # Reads before turning the bus around for writes
system.mem_ctrls0.rdPerTurnAround::total         2277                       # Reads before turning the bus around for writes
system.mem_ctrls0.wrPerTurnAround::samples         2277                       # Writes before turning the bus around for reads
system.mem_ctrls0.wrPerTurnAround::mean     17.469917                       # Writes before turning the bus around for reads
system.mem_ctrls0.wrPerTurnAround::gmean    17.446065                       # Writes before turning the bus around for reads
system.mem_ctrls0.wrPerTurnAround::stdev     0.905264                       # Writes before turning the bus around for reads
system.mem_ctrls0.wrPerTurnAround::16             580     25.47%     25.47% # Writes before turning the bus around for reads
system.mem_ctrls0.wrPerTurnAround::17              71      3.12%     28.59% # Writes before turning the bus around for reads
system.mem_ctrls0.wrPerTurnAround::18            1611     70.75%     99.34% # Writes before turning the bus around for reads
system.mem_ctrls0.wrPerTurnAround::19              14      0.61%     99.96% # Writes before turning the bus around for reads
system.mem_ctrls0.wrPerTurnAround::28               1      0.04%    100.00% # Writes before turning the bus around for reads
system.mem_ctrls0.wrPerTurnAround::total         2277                       # Writes before turning the bus around for reads
system.mem_ctrls0.totQLat                 11539539106                       # Total ticks spent queuing
system.mem_ctrls0.totMemAccLat            16896995356                       # Total ticks spent from burst creation until serviced by the DRAM
system.mem_ctrls0.totBusLat                1428655000                       # Total ticks spent in databus transfers
system.mem_ctrls0.avgQLat                    40386.02                       # Average queueing delay per DRAM burst
system.mem_ctrls0.avgBusLat                   5000.00                       # Average bus latency per DRAM burst
system.mem_ctrls0.avgMemAccLat               59136.02                       # Average memory access latency per DRAM burst
system.mem_ctrls0.avgRdBW                       15.82                       # Average DRAM read bandwidth in MiByte/s
system.mem_ctrls0.avgWrBW                        2.20                       # Average achieved write bandwidth in MiByte/s
system.mem_ctrls0.avgRdBWSys                    15.83                       # Average system read bandwidth in MiByte/s
system.mem_ctrls0.avgWrBWSys                     2.20                       # Average system write bandwidth in MiByte/s
system.mem_ctrls0.peakBW                     12800.00                       # Theoretical peak bandwidth in MiByte/s
system.mem_ctrls0.busUtil                        0.14                       # Data bus utilization in percentage
system.mem_ctrls0.busUtilRead                    0.12                       # Data bus utilization in percentage for reads
system.mem_ctrls0.busUtilWrite                   0.02                       # Data bus utilization in percentage for writes
system.mem_ctrls0.avgRdQLen                      1.01                       # Average read queue length when enqueuing
system.mem_ctrls0.avgWrQLen                     24.09                       # Average write queue length when enqueuing
system.mem_ctrls0.readRowHits                  148967                       # Number of row buffer hits during reads
system.mem_ctrls0.writeRowHits                   3840                       # Number of row buffer hits during writes
system.mem_ctrls0.readRowHitRate                52.14                       # Row buffer hit rate for reads
system.mem_ctrls0.writeRowHitRate                9.65                       # Row buffer hit rate for writes
system.mem_ctrls0.avgGap                   3548606.97                       # Average gap between requests
system.mem_ctrls0.pageHitRate                   46.94                       # Row buffer hit rate, read and write combined
system.mem_ctrls0_0.actEnergy               608692140                       # Energy for activate commands per rank (pJ)
system.mem_ctrls0_0.preEnergy               323527545                       # Energy for precharge commands per rank (pJ)
system.mem_ctrls0_0.readEnergy             1008582120                       # Energy for read commands per rank (pJ)
system.mem_ctrls0_0.writeEnergy              93719880                       # Energy for write commands per rank (pJ)
system.mem_ctrls0_0.refreshEnergy        20239480560.000004                       # Energy for refresh commands per rank (pJ)
system.mem_ctrls0_0.actBackEnergy          7130432100                       # Energy for active background per rank (pJ)
system.mem_ctrls0_0.preBackEnergy           968336160                       # Energy for precharge background per rank (pJ)
system.mem_ctrls0_0.actPowerDownEnergy    57684664050                       # Energy for active power-down per rank (pJ)
system.mem_ctrls0_0.prePowerDownEnergy    26056560000                       # Energy for precharge power-down per rank (pJ)
system.mem_ctrls0_0.selfRefreshEnergy    229763950560                       # Energy for self refresh per rank (pJ)
system.mem_ctrls0_0.totalEnergy          343884221325                       # Total energy per rank (pJ)
system.mem_ctrls0_0.averagePower           297.494878                       # Core power per rank (mW)
system.mem_ctrls0_0.totalIdleTime        1137727047668                       # Total Idle time Per DRAM Rank
system.mem_ctrls0_0.memoryStateTime::IDLE   1729913674                       # Time in different power states
system.mem_ctrls0_0.memoryStateTime::REF   8598470000                       # Time in different power states
system.mem_ctrls0_0.memoryStateTime::SREF 943403566913                       # Time in different power states
system.mem_ctrls0_0.memoryStateTime::PRE_PDN  67855442143                       # Time in different power states
system.mem_ctrls0_0.memoryStateTime::ACT   7844585806                       # Time in different power states
system.mem_ctrls0_0.memoryStateTime::ACT_PDN 126501268127                       # Time in different power states
system.mem_ctrls0_1.actEnergy               624407280                       # Energy for activate commands per rank (pJ)
system.mem_ctrls0_1.preEnergy               331880340                       # Energy for precharge commands per rank (pJ)
system.mem_ctrls0_1.readEnergy             1031537220                       # Energy for read commands per rank (pJ)
system.mem_ctrls0_1.writeEnergy             113926500                       # Energy for write commands per rank (pJ)
system.mem_ctrls0_1.refreshEnergy        20822159280.000004                       # Energy for refresh commands per rank (pJ)
system.mem_ctrls0_1.actBackEnergy          7253278500                       # Energy for active background per rank (pJ)
system.mem_ctrls0_1.preBackEnergy           984367680                       # Energy for precharge background per rank (pJ)
system.mem_ctrls0_1.actPowerDownEnergy    59581665660                       # Energy for active power-down per rank (pJ)
system.mem_ctrls0_1.prePowerDownEnergy    26883170880                       # Energy for precharge power-down per rank (pJ)
system.mem_ctrls0_1.selfRefreshEnergy    228232414050                       # Energy for self refresh per rank (pJ)
system.mem_ctrls0_1.totalEnergy          345866650140                       # Total energy per rank (pJ)
system.mem_ctrls0_1.averagePower           299.209880                       # Core power per rank (mW)
system.mem_ctrls0_1.totalIdleTime        1137409264023                       # Total Idle time Per DRAM Rank
system.mem_ctrls0_1.memoryStateTime::IDLE   1753763088                       # Time in different power states
system.mem_ctrls0_1.memoryStateTime::REF   8845550000                       # Time in different power states
system.mem_ctrls0_1.memoryStateTime::SREF 936776227913                       # Time in different power states
system.mem_ctrls0_1.memoryStateTime::PRE_PDN  70007934589                       # Time in different power states
system.mem_ctrls0_1.memoryStateTime::ACT   7887996773                       # Time in different power states
system.mem_ctrls0_1.memoryStateTime::ACT_PDN 130661774300                       # Time in different power states
system.mem_ctrls1.pwrStateResidencyTicks::UNDEFINED 71180398125558                       # Cumulative time (in ticks) in various power states
system.mem_ctrls1.bytes_read::cpu.inst            128                       # Number of bytes read from this memory
system.mem_ctrls1.bytes_read::cpu.data             64                       # Number of bytes read from this memory
system.mem_ctrls1.bytes_read::switch_cpus.inst       364032                       # Number of bytes read from this memory
system.mem_ctrls1.bytes_read::switch_cpus.data     11496128                       # Number of bytes read from this memory
system.mem_ctrls1.bytes_read::switch_cpus_1.inst       237120                       # Number of bytes read from this memory
system.mem_ctrls1.bytes_read::switch_cpus_1.data      6094848                       # Number of bytes read from this memory
system.mem_ctrls1.bytes_read::total          18192320                       # Number of bytes read from this memory
system.mem_ctrls1.bytes_inst_read::cpu.inst          128                       # Number of instructions bytes read from this memory
system.mem_ctrls1.bytes_inst_read::switch_cpus.inst       364032                       # Number of instructions bytes read from this memory
system.mem_ctrls1.bytes_inst_read::switch_cpus_1.inst       237120                       # Number of instructions bytes read from this memory
system.mem_ctrls1.bytes_inst_read::total       601280                       # Number of instructions bytes read from this memory
system.mem_ctrls1.bytes_written::writebacks      2542144                       # Number of bytes written to this memory
system.mem_ctrls1.bytes_written::total        2542144                       # Number of bytes written to this memory
system.mem_ctrls1.num_reads::cpu.inst               2                       # Number of read requests responded to by this memory
system.mem_ctrls1.num_reads::cpu.data               1                       # Number of read requests responded to by this memory
system.mem_ctrls1.num_reads::switch_cpus.inst         5688                       # Number of read requests responded to by this memory
system.mem_ctrls1.num_reads::switch_cpus.data       179627                       # Number of read requests responded to by this memory
system.mem_ctrls1.num_reads::switch_cpus_1.inst         3705                       # Number of read requests responded to by this memory
system.mem_ctrls1.num_reads::switch_cpus_1.data        95232                       # Number of read requests responded to by this memory
system.mem_ctrls1.num_reads::total             284255                       # Number of read requests responded to by this memory
system.mem_ctrls1.num_writes::writebacks        39721                       # Number of write requests responded to by this memory
system.mem_ctrls1.num_writes::total             39721                       # Number of write requests responded to by this memory
system.mem_ctrls1.bw_read::cpu.inst               111                       # Total read bandwidth from this memory (bytes/s)
system.mem_ctrls1.bw_read::cpu.data                55                       # Total read bandwidth from this memory (bytes/s)
system.mem_ctrls1.bw_read::switch_cpus.inst       314925                       # Total read bandwidth from this memory (bytes/s)
system.mem_ctrls1.bw_read::switch_cpus.data      9945322                       # Total read bandwidth from this memory (bytes/s)
system.mem_ctrls1.bw_read::switch_cpus_1.inst       205133                       # Total read bandwidth from this memory (bytes/s)
system.mem_ctrls1.bw_read::switch_cpus_1.data      5272664                       # Total read bandwidth from this memory (bytes/s)
system.mem_ctrls1.bw_read::total             15738210                       # Total read bandwidth from this memory (bytes/s)
system.mem_ctrls1.bw_inst_read::cpu.inst          111                       # Instruction read bandwidth from this memory (bytes/s)
system.mem_ctrls1.bw_inst_read::switch_cpus.inst       314925                       # Instruction read bandwidth from this memory (bytes/s)
system.mem_ctrls1.bw_inst_read::switch_cpus_1.inst       205133                       # Instruction read bandwidth from this memory (bytes/s)
system.mem_ctrls1.bw_inst_read::total          520168                       # Instruction read bandwidth from this memory (bytes/s)
system.mem_ctrls1.bw_write::writebacks        2199213                       # Write bandwidth from this memory (bytes/s)
system.mem_ctrls1.bw_write::total             2199213                       # Write bandwidth from this memory (bytes/s)
system.mem_ctrls1.bw_total::writebacks        2199213                       # Total bandwidth to/from this memory (bytes/s)
system.mem_ctrls1.bw_total::cpu.inst              111                       # Total bandwidth to/from this memory (bytes/s)
system.mem_ctrls1.bw_total::cpu.data               55                       # Total bandwidth to/from this memory (bytes/s)
system.mem_ctrls1.bw_total::switch_cpus.inst       314925                       # Total bandwidth to/from this memory (bytes/s)
system.mem_ctrls1.bw_total::switch_cpus.data      9945322                       # Total bandwidth to/from this memory (bytes/s)
system.mem_ctrls1.bw_total::switch_cpus_1.inst       205133                       # Total bandwidth to/from this memory (bytes/s)
system.mem_ctrls1.bw_total::switch_cpus_1.data      5272664                       # Total bandwidth to/from this memory (bytes/s)
system.mem_ctrls1.bw_total::total            17937423                       # Total bandwidth to/from this memory (bytes/s)
system.mem_ctrls1.readReqs                     284255                       # Number of read requests accepted
system.mem_ctrls1.writeReqs                     39721                       # Number of write requests accepted
system.mem_ctrls1.readBursts                   284255                       # Number of DRAM read bursts, including those serviced by the write queue
system.mem_ctrls1.writeBursts                   39721                       # Number of DRAM write bursts, including those merged in the write queue
system.mem_ctrls1.bytesReadDRAM              18177792                       # Total number of bytes read from DRAM
system.mem_ctrls1.bytesReadWrQ                  14528                       # Total number of bytes read from write queue
system.mem_ctrls1.bytesWritten                2540992                       # Total number of bytes written to DRAM
system.mem_ctrls1.bytesReadSys               18192320                       # Total read bytes from the system interface side
system.mem_ctrls1.bytesWrittenSys             2542144                       # Total written bytes from the system interface side
system.mem_ctrls1.servicedByWrQ                   227                       # Number of DRAM read bursts serviced by the write queue
system.mem_ctrls1.mergedWrBursts                    0                       # Number of DRAM write bursts merged with an existing one
system.mem_ctrls1.neitherReadNorWriteReqs            0                       # Number of requests that are neither read nor write
system.mem_ctrls1.perBankRdBursts::0            16578                       # Per bank write bursts
system.mem_ctrls1.perBankRdBursts::1            17120                       # Per bank write bursts
system.mem_ctrls1.perBankRdBursts::2            19965                       # Per bank write bursts
system.mem_ctrls1.perBankRdBursts::3            18386                       # Per bank write bursts
system.mem_ctrls1.perBankRdBursts::4            18009                       # Per bank write bursts
system.mem_ctrls1.perBankRdBursts::5            17046                       # Per bank write bursts
system.mem_ctrls1.perBankRdBursts::6            16218                       # Per bank write bursts
system.mem_ctrls1.perBankRdBursts::7            16984                       # Per bank write bursts
system.mem_ctrls1.perBankRdBursts::8            17191                       # Per bank write bursts
system.mem_ctrls1.perBankRdBursts::9            16743                       # Per bank write bursts
system.mem_ctrls1.perBankRdBursts::10           17892                       # Per bank write bursts
system.mem_ctrls1.perBankRdBursts::11           16666                       # Per bank write bursts
system.mem_ctrls1.perBankRdBursts::12           21054                       # Per bank write bursts
system.mem_ctrls1.perBankRdBursts::13           18528                       # Per bank write bursts
system.mem_ctrls1.perBankRdBursts::14           17443                       # Per bank write bursts
system.mem_ctrls1.perBankRdBursts::15           18205                       # Per bank write bursts
system.mem_ctrls1.perBankWrBursts::0             1666                       # Per bank write bursts
system.mem_ctrls1.perBankWrBursts::1             1996                       # Per bank write bursts
system.mem_ctrls1.perBankWrBursts::2             2677                       # Per bank write bursts
system.mem_ctrls1.perBankWrBursts::3             2384                       # Per bank write bursts
system.mem_ctrls1.perBankWrBursts::4             2464                       # Per bank write bursts
system.mem_ctrls1.perBankWrBursts::5             1843                       # Per bank write bursts
system.mem_ctrls1.perBankWrBursts::6             1932                       # Per bank write bursts
system.mem_ctrls1.perBankWrBursts::7             2528                       # Per bank write bursts
system.mem_ctrls1.perBankWrBursts::8             2898                       # Per bank write bursts
system.mem_ctrls1.perBankWrBursts::9             2142                       # Per bank write bursts
system.mem_ctrls1.perBankWrBursts::10            3199                       # Per bank write bursts
system.mem_ctrls1.perBankWrBursts::11            2668                       # Per bank write bursts
system.mem_ctrls1.perBankWrBursts::12            3021                       # Per bank write bursts
system.mem_ctrls1.perBankWrBursts::13            2734                       # Per bank write bursts
system.mem_ctrls1.perBankWrBursts::14            2981                       # Per bank write bursts
system.mem_ctrls1.perBankWrBursts::15            2570                       # Per bank write bursts
system.mem_ctrls1.numRdRetry                        0                       # Number of times read queue was full causing retry
system.mem_ctrls1.numWrRetry                        0                       # Number of times write queue was full causing retry
system.mem_ctrls1.totGap                 1155886768521                       # Total gap between requests
system.mem_ctrls1.readPktSize::0                    0                       # Read request sizes (log2)
system.mem_ctrls1.readPktSize::1                    0                       # Read request sizes (log2)
system.mem_ctrls1.readPktSize::2                    0                       # Read request sizes (log2)
system.mem_ctrls1.readPktSize::3                    0                       # Read request sizes (log2)
system.mem_ctrls1.readPktSize::4                    0                       # Read request sizes (log2)
system.mem_ctrls1.readPktSize::5                    0                       # Read request sizes (log2)
system.mem_ctrls1.readPktSize::6               284255                       # Read request sizes (log2)
system.mem_ctrls1.writePktSize::0                   0                       # Write request sizes (log2)
system.mem_ctrls1.writePktSize::1                   0                       # Write request sizes (log2)
system.mem_ctrls1.writePktSize::2                   0                       # Write request sizes (log2)
system.mem_ctrls1.writePktSize::3                   0                       # Write request sizes (log2)
system.mem_ctrls1.writePktSize::4                   0                       # Write request sizes (log2)
system.mem_ctrls1.writePktSize::5                   0                       # Write request sizes (log2)
system.mem_ctrls1.writePktSize::6               39721                       # Write request sizes (log2)
system.mem_ctrls1.rdQLenPdf::0                 278389                       # What read queue length does an incoming req see
system.mem_ctrls1.rdQLenPdf::1                   5494                       # What read queue length does an incoming req see
system.mem_ctrls1.rdQLenPdf::2                    139                       # What read queue length does an incoming req see
system.mem_ctrls1.rdQLenPdf::3                      6                       # What read queue length does an incoming req see
system.mem_ctrls1.rdQLenPdf::4                      0                       # What read queue length does an incoming req see
system.mem_ctrls1.rdQLenPdf::5                      0                       # What read queue length does an incoming req see
system.mem_ctrls1.rdQLenPdf::6                      0                       # What read queue length does an incoming req see
system.mem_ctrls1.rdQLenPdf::7                      0                       # What read queue length does an incoming req see
system.mem_ctrls1.rdQLenPdf::8                      0                       # What read queue length does an incoming req see
system.mem_ctrls1.rdQLenPdf::9                      0                       # What read queue length does an incoming req see
system.mem_ctrls1.rdQLenPdf::10                     0                       # What read queue length does an incoming req see
system.mem_ctrls1.rdQLenPdf::11                     0                       # What read queue length does an incoming req see
system.mem_ctrls1.rdQLenPdf::12                     0                       # What read queue length does an incoming req see
system.mem_ctrls1.rdQLenPdf::13                     0                       # What read queue length does an incoming req see
system.mem_ctrls1.rdQLenPdf::14                     0                       # What read queue length does an incoming req see
system.mem_ctrls1.rdQLenPdf::15                     0                       # What read queue length does an incoming req see
system.mem_ctrls1.rdQLenPdf::16                     0                       # What read queue length does an incoming req see
system.mem_ctrls1.rdQLenPdf::17                     0                       # What read queue length does an incoming req see
system.mem_ctrls1.rdQLenPdf::18                     0                       # What read queue length does an incoming req see
system.mem_ctrls1.rdQLenPdf::19                     0                       # What read queue length does an incoming req see
system.mem_ctrls1.rdQLenPdf::20                     0                       # What read queue length does an incoming req see
system.mem_ctrls1.rdQLenPdf::21                     0                       # What read queue length does an incoming req see
system.mem_ctrls1.rdQLenPdf::22                     0                       # What read queue length does an incoming req see
system.mem_ctrls1.rdQLenPdf::23                     0                       # What read queue length does an incoming req see
system.mem_ctrls1.rdQLenPdf::24                     0                       # What read queue length does an incoming req see
system.mem_ctrls1.rdQLenPdf::25                     0                       # What read queue length does an incoming req see
system.mem_ctrls1.rdQLenPdf::26                     0                       # What read queue length does an incoming req see
system.mem_ctrls1.rdQLenPdf::27                     0                       # What read queue length does an incoming req see
system.mem_ctrls1.rdQLenPdf::28                     0                       # What read queue length does an incoming req see
system.mem_ctrls1.rdQLenPdf::29                     0                       # What read queue length does an incoming req see
system.mem_ctrls1.rdQLenPdf::30                     0                       # What read queue length does an incoming req see
system.mem_ctrls1.rdQLenPdf::31                     0                       # What read queue length does an incoming req see
system.mem_ctrls1.wrQLenPdf::0                      2                       # What write queue length does an incoming req see
system.mem_ctrls1.wrQLenPdf::1                      2                       # What write queue length does an incoming req see
system.mem_ctrls1.wrQLenPdf::2                      2                       # What write queue length does an incoming req see
system.mem_ctrls1.wrQLenPdf::3                      2                       # What write queue length does an incoming req see
system.mem_ctrls1.wrQLenPdf::4                      2                       # What write queue length does an incoming req see
system.mem_ctrls1.wrQLenPdf::5                      2                       # What write queue length does an incoming req see
system.mem_ctrls1.wrQLenPdf::6                      2                       # What write queue length does an incoming req see
system.mem_ctrls1.wrQLenPdf::7                      2                       # What write queue length does an incoming req see
system.mem_ctrls1.wrQLenPdf::8                      2                       # What write queue length does an incoming req see
system.mem_ctrls1.wrQLenPdf::9                      2                       # What write queue length does an incoming req see
system.mem_ctrls1.wrQLenPdf::10                     2                       # What write queue length does an incoming req see
system.mem_ctrls1.wrQLenPdf::11                     2                       # What write queue length does an incoming req see
system.mem_ctrls1.wrQLenPdf::12                     2                       # What write queue length does an incoming req see
system.mem_ctrls1.wrQLenPdf::13                     2                       # What write queue length does an incoming req see
system.mem_ctrls1.wrQLenPdf::14                     2                       # What write queue length does an incoming req see
system.mem_ctrls1.wrQLenPdf::15                  1630                       # What write queue length does an incoming req see
system.mem_ctrls1.wrQLenPdf::16                  1688                       # What write queue length does an incoming req see
system.mem_ctrls1.wrQLenPdf::17                  2268                       # What write queue length does an incoming req see
system.mem_ctrls1.wrQLenPdf::18                  2274                       # What write queue length does an incoming req see
system.mem_ctrls1.wrQLenPdf::19                  2275                       # What write queue length does an incoming req see
system.mem_ctrls1.wrQLenPdf::20                  2274                       # What write queue length does an incoming req see
system.mem_ctrls1.wrQLenPdf::21                  2272                       # What write queue length does an incoming req see
system.mem_ctrls1.wrQLenPdf::22                  2273                       # What write queue length does an incoming req see
system.mem_ctrls1.wrQLenPdf::23                  2274                       # What write queue length does an incoming req see
system.mem_ctrls1.wrQLenPdf::24                  2274                       # What write queue length does an incoming req see
system.mem_ctrls1.wrQLenPdf::25                  2275                       # What write queue length does an incoming req see
system.mem_ctrls1.wrQLenPdf::26                  2272                       # What write queue length does an incoming req see
system.mem_ctrls1.wrQLenPdf::27                  2272                       # What write queue length does an incoming req see
system.mem_ctrls1.wrQLenPdf::28                  2273                       # What write queue length does an incoming req see
system.mem_ctrls1.wrQLenPdf::29                  2275                       # What write queue length does an incoming req see
system.mem_ctrls1.wrQLenPdf::30                  2276                       # What write queue length does an incoming req see
system.mem_ctrls1.wrQLenPdf::31                  2272                       # What write queue length does an incoming req see
system.mem_ctrls1.wrQLenPdf::32                  2272                       # What write queue length does an incoming req see
system.mem_ctrls1.wrQLenPdf::33                     2                       # What write queue length does an incoming req see
system.mem_ctrls1.wrQLenPdf::34                     0                       # What write queue length does an incoming req see
system.mem_ctrls1.wrQLenPdf::35                     0                       # What write queue length does an incoming req see
system.mem_ctrls1.wrQLenPdf::36                     0                       # What write queue length does an incoming req see
system.mem_ctrls1.wrQLenPdf::37                     0                       # What write queue length does an incoming req see
system.mem_ctrls1.wrQLenPdf::38                     0                       # What write queue length does an incoming req see
system.mem_ctrls1.wrQLenPdf::39                     0                       # What write queue length does an incoming req see
system.mem_ctrls1.wrQLenPdf::40                     0                       # What write queue length does an incoming req see
system.mem_ctrls1.wrQLenPdf::41                     0                       # What write queue length does an incoming req see
system.mem_ctrls1.wrQLenPdf::42                     0                       # What write queue length does an incoming req see
system.mem_ctrls1.wrQLenPdf::43                     0                       # What write queue length does an incoming req see
system.mem_ctrls1.wrQLenPdf::44                     0                       # What write queue length does an incoming req see
system.mem_ctrls1.wrQLenPdf::45                     0                       # What write queue length does an incoming req see
system.mem_ctrls1.wrQLenPdf::46                     0                       # What write queue length does an incoming req see
system.mem_ctrls1.wrQLenPdf::47                     0                       # What write queue length does an incoming req see
system.mem_ctrls1.wrQLenPdf::48                     0                       # What write queue length does an incoming req see
system.mem_ctrls1.wrQLenPdf::49                     0                       # What write queue length does an incoming req see
system.mem_ctrls1.wrQLenPdf::50                     0                       # What write queue length does an incoming req see
system.mem_ctrls1.wrQLenPdf::51                     0                       # What write queue length does an incoming req see
system.mem_ctrls1.wrQLenPdf::52                     0                       # What write queue length does an incoming req see
system.mem_ctrls1.wrQLenPdf::53                     0                       # What write queue length does an incoming req see
system.mem_ctrls1.wrQLenPdf::54                     0                       # What write queue length does an incoming req see
system.mem_ctrls1.wrQLenPdf::55                     0                       # What write queue length does an incoming req see
system.mem_ctrls1.wrQLenPdf::56                     0                       # What write queue length does an incoming req see
system.mem_ctrls1.wrQLenPdf::57                     0                       # What write queue length does an incoming req see
system.mem_ctrls1.wrQLenPdf::58                     0                       # What write queue length does an incoming req see
system.mem_ctrls1.wrQLenPdf::59                     0                       # What write queue length does an incoming req see
system.mem_ctrls1.wrQLenPdf::60                     0                       # What write queue length does an incoming req see
system.mem_ctrls1.wrQLenPdf::61                     0                       # What write queue length does an incoming req see
system.mem_ctrls1.wrQLenPdf::62                     0                       # What write queue length does an incoming req see
system.mem_ctrls1.wrQLenPdf::63                     0                       # What write queue length does an incoming req see
system.mem_ctrls1.bytesPerActivate::samples       171981                       # Bytes accessed per row activation
system.mem_ctrls1.bytesPerActivate::mean   120.471354                       # Bytes accessed per row activation
system.mem_ctrls1.bytesPerActivate::gmean    91.300614                       # Bytes accessed per row activation
system.mem_ctrls1.bytesPerActivate::stdev   133.651100                       # Bytes accessed per row activation
system.mem_ctrls1.bytesPerActivate::0-127       119799     69.66%     69.66% # Bytes accessed per row activation
system.mem_ctrls1.bytesPerActivate::128-255        33351     19.39%     89.05% # Bytes accessed per row activation
system.mem_ctrls1.bytesPerActivate::256-383         8681      5.05%     94.10% # Bytes accessed per row activation
system.mem_ctrls1.bytesPerActivate::384-511         4283      2.49%     96.59% # Bytes accessed per row activation
system.mem_ctrls1.bytesPerActivate::512-639         2469      1.44%     98.02% # Bytes accessed per row activation
system.mem_ctrls1.bytesPerActivate::640-767         1494      0.87%     98.89% # Bytes accessed per row activation
system.mem_ctrls1.bytesPerActivate::768-895          896      0.52%     99.41% # Bytes accessed per row activation
system.mem_ctrls1.bytesPerActivate::896-1023          422      0.25%     99.66% # Bytes accessed per row activation
system.mem_ctrls1.bytesPerActivate::1024-1151          586      0.34%    100.00% # Bytes accessed per row activation
system.mem_ctrls1.bytesPerActivate::total       171981                       # Bytes accessed per row activation
system.mem_ctrls1.rdPerTurnAround::samples         2273                       # Reads before turning the bus around for writes
system.mem_ctrls1.rdPerTurnAround::mean    124.952046                       # Reads before turning the bus around for writes
system.mem_ctrls1.rdPerTurnAround::gmean   108.054415                       # Reads before turning the bus around for writes
system.mem_ctrls1.rdPerTurnAround::stdev   563.921662                       # Reads before turning the bus around for writes
system.mem_ctrls1.rdPerTurnAround::0-1023         2272     99.96%     99.96% # Reads before turning the bus around for writes
system.mem_ctrls1.rdPerTurnAround::26624-27647            1      0.04%    100.00% # Reads before turning the bus around for writes
system.mem_ctrls1.rdPerTurnAround::total         2273                       # Reads before turning the bus around for writes
system.mem_ctrls1.wrPerTurnAround::samples         2273                       # Writes before turning the bus around for reads
system.mem_ctrls1.wrPerTurnAround::mean     17.467224                       # Writes before turning the bus around for reads
system.mem_ctrls1.wrPerTurnAround::gmean    17.444119                       # Writes before turning the bus around for reads
system.mem_ctrls1.wrPerTurnAround::stdev     0.883088                       # Writes before turning the bus around for reads
system.mem_ctrls1.wrPerTurnAround::16             585     25.74%     25.74% # Writes before turning the bus around for reads
system.mem_ctrls1.wrPerTurnAround::17              59      2.60%     28.33% # Writes before turning the bus around for reads
system.mem_ctrls1.wrPerTurnAround::18            1611     70.88%     99.21% # Writes before turning the bus around for reads
system.mem_ctrls1.wrPerTurnAround::19              18      0.79%    100.00% # Writes before turning the bus around for reads
system.mem_ctrls1.wrPerTurnAround::total         2273                       # Writes before turning the bus around for reads
system.mem_ctrls1.totQLat                 11490957831                       # Total ticks spent queuing
system.mem_ctrls1.totMemAccLat            16816482831                       # Total ticks spent from burst creation until serviced by the DRAM
system.mem_ctrls1.totBusLat                1420140000                       # Total ticks spent in databus transfers
system.mem_ctrls1.avgQLat                    40457.13                       # Average queueing delay per DRAM burst
system.mem_ctrls1.avgBusLat                   5000.00                       # Average bus latency per DRAM burst
system.mem_ctrls1.avgMemAccLat               59207.13                       # Average memory access latency per DRAM burst
system.mem_ctrls1.avgRdBW                       15.73                       # Average DRAM read bandwidth in MiByte/s
system.mem_ctrls1.avgWrBW                        2.20                       # Average achieved write bandwidth in MiByte/s
system.mem_ctrls1.avgRdBWSys                    15.74                       # Average system read bandwidth in MiByte/s
system.mem_ctrls1.avgWrBWSys                     2.20                       # Average system write bandwidth in MiByte/s
system.mem_ctrls1.peakBW                     12800.00                       # Theoretical peak bandwidth in MiByte/s
system.mem_ctrls1.busUtil                        0.14                       # Data bus utilization in percentage
system.mem_ctrls1.busUtilRead                    0.12                       # Data bus utilization in percentage for reads
system.mem_ctrls1.busUtilWrite                   0.02                       # Data bus utilization in percentage for writes
system.mem_ctrls1.avgRdQLen                      1.01                       # Average read queue length when enqueuing
system.mem_ctrls1.avgWrQLen                     24.16                       # Average write queue length when enqueuing
system.mem_ctrls1.readRowHits                  147831                       # Number of row buffer hits during reads
system.mem_ctrls1.writeRowHits                   3919                       # Number of row buffer hits during writes
system.mem_ctrls1.readRowHitRate                52.05                       # Row buffer hit rate for reads
system.mem_ctrls1.writeRowHitRate                9.87                       # Row buffer hit rate for writes
system.mem_ctrls1.avgGap                   3567816.04                       # Average gap between requests
system.mem_ctrls1.pageHitRate                   46.87                       # Row buffer hit rate, read and write combined
system.mem_ctrls1_0.actEnergy               604308180                       # Energy for activate commands per rank (pJ)
system.mem_ctrls1_0.preEnergy               321197415                       # Energy for precharge commands per rank (pJ)
system.mem_ctrls1_0.readEnergy             1001784840                       # Energy for read commands per rank (pJ)
system.mem_ctrls1_0.writeEnergy              91297800                       # Energy for write commands per rank (pJ)
system.mem_ctrls1_0.refreshEnergy        20310164160.000004                       # Energy for refresh commands per rank (pJ)
system.mem_ctrls1_0.actBackEnergy          7093402050                       # Energy for active background per rank (pJ)
system.mem_ctrls1_0.preBackEnergy           971629440                       # Energy for precharge background per rank (pJ)
system.mem_ctrls1_0.actPowerDownEnergy    57887795520                       # Energy for active power-down per rank (pJ)
system.mem_ctrls1_0.prePowerDownEnergy    26246891520                       # Energy for precharge power-down per rank (pJ)
system.mem_ctrls1_0.selfRefreshEnergy    229557545790                       # Energy for self refresh per rank (pJ)
system.mem_ctrls1_0.totalEnergy          344091357375                       # Total energy per rank (pJ)
system.mem_ctrls1_0.averagePower           297.674073                       # Core power per rank (mW)
system.mem_ctrls1_0.totalIdleTime        1137803297400                       # Total Idle time Per DRAM Rank
system.mem_ctrls1_0.memoryStateTime::IDLE   1733077457                       # Time in different power states
system.mem_ctrls1_0.memoryStateTime::REF   8628412000                       # Time in different power states
system.mem_ctrls1_0.memoryStateTime::SREF 942537149163                       # Time in different power states
system.mem_ctrls1_0.memoryStateTime::PRE_PDN  68351445087                       # Time in different power states
system.mem_ctrls1_0.memoryStateTime::ACT   7736325528                       # Time in different power states
system.mem_ctrls1_0.memoryStateTime::ACT_PDN 126946837428                       # Time in different power states
system.mem_ctrls1_1.actEnergy               623636160                       # Energy for activate commands per rank (pJ)
system.mem_ctrls1_1.preEnergy               331470480                       # Energy for precharge commands per rank (pJ)
system.mem_ctrls1_1.readEnergy             1026175080                       # Energy for read commands per rank (pJ)
system.mem_ctrls1_1.writeEnergy             115951860                       # Energy for write commands per rank (pJ)
system.mem_ctrls1_1.refreshEnergy        20761924560.000004                       # Energy for refresh commands per rank (pJ)
system.mem_ctrls1_1.actBackEnergy          7202998230                       # Energy for active background per rank (pJ)
system.mem_ctrls1_1.preBackEnergy           985804320                       # Energy for precharge background per rank (pJ)
system.mem_ctrls1_1.actPowerDownEnergy    59309374380                       # Energy for active power-down per rank (pJ)
system.mem_ctrls1_1.prePowerDownEnergy    26805912000                       # Energy for precharge power-down per rank (pJ)
system.mem_ctrls1_1.selfRefreshEnergy    228460036950                       # Energy for self refresh per rank (pJ)
system.mem_ctrls1_1.totalEnergy          345629654100                       # Total energy per rank (pJ)
system.mem_ctrls1_1.averagePower           299.004856                       # Core power per rank (mW)
system.mem_ctrls1_1.totalIdleTime        1137517219783                       # Total Idle time Per DRAM Rank
system.mem_ctrls1_1.memoryStateTime::IDLE   1757896158                       # Time in different power states
system.mem_ctrls1_1.memoryStateTime::REF   8820256000                       # Time in different power states
system.mem_ctrls1_1.memoryStateTime::SREF 937684285413                       # Time in different power states
system.mem_ctrls1_1.memoryStateTime::PRE_PDN  69807047156                       # Time in different power states
system.mem_ctrls1_1.memoryStateTime::ACT   7799047433                       # Time in different power states
system.mem_ctrls1_1.memoryStateTime::ACT_PDN 130064714503                       # Time in different power states
system.pwrStateResidencyTicks::UNDEFINED 71180398125558                       # Cumulative time (in ticks) in various power states
system.cpu.branchPred.lookups                       6                       # Number of BP lookups
system.cpu.branchPred.condPredicted                 2                       # Number of conditional branches predicted
system.cpu.branchPred.condIncorrect                 2                       # Number of conditional branches incorrect
system.cpu.branchPred.BTBLookups                    3                       # Number of BTB lookups
system.cpu.branchPred.BTBHits                       0                       # Number of BTB hits
system.cpu.branchPred.BTBCorrect                    0                       # Number of correct BTB predictions (this stat may not work properly.
system.cpu.branchPred.BTBHitPct              0.000000                       # BTB Hit Percentage
system.cpu.branchPred.usedRAS                       1                       # Number of times the RAS was used to get a target.
system.cpu.branchPred.RASInCorrect                  1                       # Number of incorrect RAS predictions.
system.cpu.branchPred.indirectLookups               0                       # Number of indirect predictor lookups.
system.cpu.branchPred.indirectHits                  0                       # Number of indirect target hits.
system.cpu.branchPred.indirectMisses                0                       # Number of indirect misses.
system.cpu.branchPredindirectMispredicted            0                       # Number of mispredicted indirect branches.
system.cpu_voltage_domain.voltage                   1                       # Voltage in Volts
system.cpu_clk_domain.clock                       333                       # Clock period in ticks
system.cpu.dtb.fetch_hits                           0                       # ITB hits
system.cpu.dtb.fetch_misses                         0                       # ITB misses
system.cpu.dtb.fetch_acv                            0                       # ITB acv
system.cpu.dtb.fetch_accesses                       0                       # ITB accesses
system.cpu.dtb.read_hits                            8                       # DTB read hits
system.cpu.dtb.read_misses                          0                       # DTB read misses
system.cpu.dtb.read_acv                             0                       # DTB read access violations
system.cpu.dtb.read_accesses                        8                       # DTB read accesses
system.cpu.dtb.write_hits                           1                       # DTB write hits
system.cpu.dtb.write_misses                         0                       # DTB write misses
system.cpu.dtb.write_acv                            0                       # DTB write access violations
system.cpu.dtb.write_accesses                       1                       # DTB write accesses
system.cpu.dtb.data_hits                            9                       # DTB hits
system.cpu.dtb.data_misses                          0                       # DTB misses
system.cpu.dtb.data_acv                             0                       # DTB access violations
system.cpu.dtb.data_accesses                        9                       # DTB accesses
system.cpu.itb.fetch_hits                           4                       # ITB hits
system.cpu.itb.fetch_misses                         1                       # ITB misses
system.cpu.itb.fetch_acv                            0                       # ITB acv
system.cpu.itb.fetch_accesses                       5                       # ITB accesses
system.cpu.itb.read_hits                            0                       # DTB read hits
system.cpu.itb.read_misses                          0                       # DTB read misses
system.cpu.itb.read_acv                             0                       # DTB read access violations
system.cpu.itb.read_accesses                        0                       # DTB read accesses
system.cpu.itb.write_hits                           0                       # DTB write hits
system.cpu.itb.write_misses                         0                       # DTB write misses
system.cpu.itb.write_acv                            0                       # DTB write access violations
system.cpu.itb.write_accesses                       0                       # DTB write accesses
system.cpu.itb.data_hits                            0                       # DTB hits
system.cpu.itb.data_misses                          0                       # DTB misses
system.cpu.itb.data_acv                             0                       # DTB access violations
system.cpu.itb.data_accesses                        0                       # DTB accesses
system.cpu.workload.num_syscalls                   43                       # Number of system calls
system.cpu.pwrStateResidencyTicks::ON    1155933246663                       # Cumulative time (in ticks) in various power states
system.cpu.numCycles                             1087                       # number of cpu cycles simulated
system.cpu.numWorkItemsStarted                      0                       # number of work items this cpu started
system.cpu.numWorkItemsCompleted                    0                       # number of work items this cpu completed
system.cpu.fetch.icacheStallCycles                 28                       # Number of cycles fetch is stalled on an Icache miss
system.cpu.fetch.Insts                             24                       # Number of instructions fetch has processed
system.cpu.fetch.Branches                           6                       # Number of branches that fetch encountered
system.cpu.fetch.predictedBranches                  1                       # Number of branches that fetch has predicted taken
system.cpu.fetch.Cycles                             4                       # Number of cycles fetch has run and was not squashing or blocked
system.cpu.fetch.SquashCycles                       7                       # Number of cycles fetch has spent squashing
system.cpu.fetch.PendingDrainCycles                 6                       # Number of cycles fetch has spent waiting on pipes to drain
system.cpu.fetch.PendingTrapStallCycles            27                       # Number of stall cycles due to pending traps
system.cpu.fetch.CacheLines                         4                       # Number of cache lines fetched
system.cpu.fetch.IcacheSquashes                     2                       # Number of outstanding Icache misses that were squashed
system.cpu.fetch.rateDist::samples                 68                       # Number of instructions fetched each cycle (Total)
system.cpu.fetch.rateDist::mean              0.352941                       # Number of instructions fetched each cycle (Total)
system.cpu.fetch.rateDist::stdev             1.543061                       # Number of instructions fetched each cycle (Total)
system.cpu.fetch.rateDist::underflows               0      0.00%      0.00% # Number of instructions fetched each cycle (Total)
system.cpu.fetch.rateDist::0                       64     94.12%     94.12% # Number of instructions fetched each cycle (Total)
system.cpu.fetch.rateDist::1                        0      0.00%     94.12% # Number of instructions fetched each cycle (Total)
system.cpu.fetch.rateDist::2                        1      1.47%     95.59% # Number of instructions fetched each cycle (Total)
system.cpu.fetch.rateDist::3                        0      0.00%     95.59% # Number of instructions fetched each cycle (Total)
system.cpu.fetch.rateDist::4                        0      0.00%     95.59% # Number of instructions fetched each cycle (Total)
system.cpu.fetch.rateDist::5                        0      0.00%     95.59% # Number of instructions fetched each cycle (Total)
system.cpu.fetch.rateDist::6                        1      1.47%     97.06% # Number of instructions fetched each cycle (Total)
system.cpu.fetch.rateDist::7                        0      0.00%     97.06% # Number of instructions fetched each cycle (Total)
system.cpu.fetch.rateDist::8                        2      2.94%    100.00% # Number of instructions fetched each cycle (Total)
[...]
system.switch_cpus_1.iq.int_inst_queue_wakeup_accesses    543158367                       # Number of integer instruction queue wakeup accesses
system.switch_cpus_1.iq.fp_inst_queue_reads       494275                       # Number of floating instruction queue reads
system.switch_cpus_1.iq.fp_inst_queue_writes       391035                       # Number of floating instruction queue writes
system.switch_cpus_1.iq.fp_inst_queue_wakeup_accesses       216923                       # Number of floating instruction queue wakeup accesses
system.switch_cpus_1.iq.int_alu_accesses    569334332                       # Number of integer alu accesses
system.switch_cpus_1.iq.fp_alu_accesses        255093                       # Number of floating point alu accesses
system.switch_cpus_1.iew.lsq.thread0.forwLoads     13971964                       # Number of loads that had data forwarded from stores
system.switch_cpus_1.iew.lsq.thread0.invAddrLoads            0                       # Number of loads ignored due to an invalid address
system.switch_cpus_1.iew.lsq.thread0.squashedLoads     23530716                       # Number of loads squashed
system.switch_cpus_1.iew.lsq.thread0.ignoredResponses        52595                       # Number of memory responses ignored because the instruction is squashed
system.switch_cpus_1.iew.lsq.thread0.memOrderViolation       105282                       # Number of memory ordering violations
system.switch_cpus_1.iew.lsq.thread0.squashedStores     10090907                       # Number of stores squashed
system.switch_cpus_1.iew.lsq.thread0.invAddrSwpfs            0                       # Number of software prefetches ignored due to an invalid address
system.switch_cpus_1.iew.lsq.thread0.blockedLoads            0                       # Number of blocked loads due to partial load-store forwarding
system.switch_cpus_1.iew.lsq.thread0.rescheduledLoads           54                       # Number of loads that were rescheduled
system.switch_cpus_1.iew.lsq.thread0.cacheBlocked        97439                       # Number of times an access to memory failed due to the cache being blocked
system.switch_cpus_1.iew.iewIdleCycles              0                       # Number of cycles IEW is idle
system.switch_cpus_1.iew.iewSquashCycles      3088920                       # Number of cycles IEW is squashing
system.switch_cpus_1.iew.iewBlockCycles      33261793                       # Number of cycles IEW is blocking
system.switch_cpus_1.iew.iewUnblockCycles     24224149                       # Number of cycles IEW is unblocking
system.switch_cpus_1.iew.iewDispatchedInsts    596403178                       # Number of instructions dispatched to IQ
system.switch_cpus_1.iew.iewDispSquashedInsts      1681370                       # Number of squashed instructions skipped by dispatch
system.switch_cpus_1.iew.iewDispLoadInsts    174624206                       # Number of dispatched load instructions
system.switch_cpus_1.iew.iewDispStoreInsts     77529157                       # Number of dispatched store instructions
system.switch_cpus_1.iew.iewDispNonSpecInsts        91653                       # Number of dispatched non-speculative instructions
system.switch_cpus_1.iew.iewIQFullEvents       244994                       # Number of times the IQ has become full, causing a stall
system.switch_cpus_1.iew.iewLSQFullEvents     24027946                       # Number of times the LSQ has become full, causing a stall
system.switch_cpus_1.iew.memOrderViolationEvents       105282                       # Number of memory order violations
system.switch_cpus_1.iew.predictedTakenIncorrect      1618168                       # Number of branches that were predicted taken incorrectly
system.switch_cpus_1.iew.predictedNotTakenIncorrect      1104500                       # Number of branches that were predicted not taken incorrectly
system.switch_cpus_1.iew.branchMispredicts      2722668                       # Number of branch mispredicts detected at execute
system.switch_cpus_1.iew.iewExecutedInsts    547683434                       # Number of executed instructions
system.switch_cpus_1.iew.iewExecLoadInsts    165229799                       # Number of load instructions executed
system.switch_cpus_1.iew.iewExecSquashedInsts      4102406                       # Number of squashed instructions skipped in execute
system.switch_cpus_1.iew.exec_swp                   0                       # number of swp insts executed
system.switch_cpus_1.iew.exec_nop            13196828                       # number of nop insts executed
system.switch_cpus_1.iew.exec_refs          238688405                       # number of memory reference insts executed
system.switch_cpus_1.iew.exec_branches       91837674                       # Number of branches executed
system.switch_cpus_1.iew.exec_stores         73458606                       # Number of stores executed
system.switch_cpus_1.iew.exec_rate           1.613147                       # Inst execution rate
system.switch_cpus_1.iew.wb_sent            545854756                       # cumulative count of insts sent to commit
system.switch_cpus_1.iew.wb_count           543375290                       # cumulative count of insts written-back
system.switch_cpus_1.iew.wb_producers       310293679                       # num instructions producing a value
system.switch_cpus_1.iew.wb_consumers       383025384                       # num instructions consuming a value
system.switch_cpus_1.iew.wb_rate             1.600458                       # insts written-back per cycle
system.switch_cpus_1.iew.wb_fanout           0.810113                       # average fanout of values written-back
system.switch_cpus_1.commit.commitSquashedInsts     75890118                       # The number of squashed insts skipped by commit
system.switch_cpus_1.commit.commitNonSpecStalls       128261                       # The number of times commit has been forced to stall to communicate backwards
system.switch_cpus_1.commit.branchMispredicts      2479627                       # The number of times a branch was mispredicted
system.switch_cpus_1.commit.committed_per_cycle::samples    313119028                       # Number of insts commited each cycle
system.switch_cpus_1.commit.committed_per_cycle::mean     1.631973                       # Number of insts commited each cycle
system.switch_cpus_1.commit.committed_per_cycle::stdev     2.531321                       # Number of insts commited each cycle
system.switch_cpus_1.commit.committed_per_cycle::underflows            0      0.00%      0.00% # Number of insts commited each cycle
system.switch_cpus_1.commit.committed_per_cycle::0    162198240     51.80%     51.80% # Number of insts commited each cycle
system.switch_cpus_1.commit.committed_per_cycle::1     62859606     20.08%     71.88% # Number of insts commited each cycle
system.switch_cpus_1.commit.committed_per_cycle::2     21440338      6.85%     78.72% # Number of insts commited each cycle
system.switch_cpus_1.commit.committed_per_cycle::3      8375641      2.67%     81.40% # Number of insts commited each cycle
system.switch_cpus_1.commit.committed_per_cycle::4      8783052      2.81%     84.20% # Number of insts commited each cycle
system.switch_cpus_1.commit.committed_per_cycle::5      8653035      2.76%     86.97% # Number of insts commited each cycle
system.switch_cpus_1.commit.committed_per_cycle::6      9336802      2.98%     89.95% # Number of insts commited each cycle
system.switch_cpus_1.commit.committed_per_cycle::7      6062052      1.94%     91.88% # Number of insts commited each cycle
system.switch_cpus_1.commit.committed_per_cycle::8     25410262      8.12%    100.00% # Number of insts commited each cycle
system.switch_cpus_1.commit.committed_per_cycle::overflows            0      0.00%    100.00% # Number of insts commited each cycle
system.switch_cpus_1.commit.committed_per_cycle::min_value            0                       # Number of insts commited each cycle
system.switch_cpus_1.commit.committed_per_cycle::max_value            8                       # Number of insts commited each cycle
system.switch_cpus_1.commit.committed_per_cycle::total    313119028                       # Number of insts commited each cycle
system.switch_cpus_1.commit.committedInsts    511001860                       # Number of instructions committed
system.switch_cpus_1.commit.committedOps    511001860                       # Number of ops (including micro ops) committed
system.switch_cpus_1.commit.swp_count               0                       # Number of s/w prefetches committed
system.switch_cpus_1.commit.refs            218531738                       # Number of memory references committed
system.switch_cpus_1.commit.loads           151093488                       # Number of loads committed
system.switch_cpus_1.commit.membars             64124                       # Number of memory barriers committed
system.switch_cpus_1.commit.branches         83750605                       # Number of branches committed
system.switch_cpus_1.commit.fp_insts           125689                       # Number of committed floating point instructions.
system.switch_cpus_1.commit.int_insts       490709016                       # Number of committed integer instructions.
system.switch_cpus_1.commit.function_calls      4321938                       # Number of function calls committed.
system.switch_cpus_1.commit.op_class_0::No_OpClass     11002595      2.15%      2.15% # Class of committed instruction
system.switch_cpus_1.commit.op_class_0::IntAlu    281358727     55.06%     57.21% # Class of committed instruction
system.switch_cpus_1.commit.op_class_0::IntMult         4985      0.00%     57.21% # Class of committed instruction
system.switch_cpus_1.commit.op_class_0::IntDiv            0      0.00%     57.21% # Class of committed instruction
system.switch_cpus_1.commit.op_class_0::FloatAdd        33508      0.01%     57.22% # Class of committed instruction
system.switch_cpus_1.commit.op_class_0::FloatCmp         2487      0.00%     57.22% # Class of committed instruction
system.switch_cpus_1.commit.op_class_0::FloatCvt         3236      0.00%     57.22% # Class of committed instruction
system.switch_cpus_1.commit.op_class_0::FloatMult           67      0.00%     57.22% # Class of committed instruction
system.switch_cpus_1.commit.op_class_0::FloatMultAcc            0      0.00%     57.22% # Class of committed instruction
system.switch_cpus_1.commit.op_class_0::FloatDiv          393      0.00%     57.22% # Class of committed instruction
system.switch_cpus_1.commit.op_class_0::FloatMisc            0      0.00%     57.22% # Class of committed instruction
system.switch_cpus_1.commit.op_class_0::FloatSqrt            0      0.00%     57.22% # Class of committed instruction
system.switch_cpus_1.commit.op_class_0::SimdAdd            0      0.00%     57.22% # Class of committed instruction
system.switch_cpus_1.commit.op_class_0::SimdAddAcc            0      0.00%     57.22% # Class of committed instruction
system.switch_cpus_1.commit.op_class_0::SimdAlu            0      0.00%     57.22% # Class of committed instruction
system.switch_cpus_1.commit.op_class_0::SimdCmp            0      0.00%     57.22% # Class of committed instruction
system.switch_cpus_1.commit.op_class_0::SimdCvt            0      0.00%     57.22% # Class of committed instruction
system.switch_cpus_1.commit.op_class_0::SimdMisc            0      0.00%     57.22% # Class of committed instruction
system.switch_cpus_1.commit.op_class_0::SimdMult            0      0.00%     57.22% # Class of committed instruction
system.switch_cpus_1.commit.op_class_0::SimdMultAcc            0      0.00%     57.22% # Class of committed instruction
system.switch_cpus_1.commit.op_class_0::SimdShift            0      0.00%     57.22% # Class of committed instruction
system.switch_cpus_1.commit.op_class_0::SimdShiftAcc            0      0.00%     57.22% # Class of committed instruction
system.switch_cpus_1.commit.op_class_0::SimdSqrt            0      0.00%     57.22% # Class of committed instruction
system.switch_cpus_1.commit.op_class_0::SimdFloatAdd            0      0.00%     57.22% # Class of committed instruction
system.switch_cpus_1.commit.op_class_0::SimdFloatAlu            0      0.00%     57.22% # Class of committed instruction
system.switch_cpus_1.commit.op_class_0::SimdFloatCmp            0      0.00%     57.22% # Class of committed instruction
system.switch_cpus_1.commit.op_class_0::SimdFloatCvt            0      0.00%     57.22% # Class of committed instruction
system.switch_cpus_1.commit.op_class_0::SimdFloatDiv            0      0.00%     57.22% # Class of committed instruction
system.switch_cpus_1.commit.op_class_0::SimdFloatMisc            0      0.00%     57.22% # Class of committed instruction
system.switch_cpus_1.commit.op_class_0::SimdFloatMult            0      0.00%     57.22% # Class of committed instruction
system.switch_cpus_1.commit.op_class_0::SimdFloatMultAcc            0      0.00%     57.22% # Class of committed instruction
system.switch_cpus_1.commit.op_class_0::SimdFloatSqrt            0      0.00%     57.22% # Class of committed instruction
system.switch_cpus_1.commit.op_class_0::MemRead    151117723     29.57%     86.79% # Class of committed instruction
system.switch_cpus_1.commit.op_class_0::MemWrite     67392141     13.19%     99.98% # Class of committed instruction
system.switch_cpus_1.commit.op_class_0::FloatMemRead        39889      0.01%     99.99% # Class of committed instruction
system.switch_cpus_1.commit.op_class_0::FloatMemWrite        46109      0.01%    100.00% # Class of committed instruction
system.switch_cpus_1.commit.op_class_0::IprAccess            0      0.00%    100.00% # Class of committed instruction
system.switch_cpus_1.commit.op_class_0::InstPrefetch            0      0.00%    100.00% # Class of committed instruction
system.switch_cpus_1.commit.op_class_0::total    511001860                       # Class of committed instruction
system.switch_cpus_1.commit.bw_lim_events     25410262                       # number cycles where commit BW limit reached
system.switch_cpus_1.rob.rob_reads          867734365                       # The number of ROB reads
system.switch_cpus_1.rob.rob_writes        1185344520                       # The number of ROB writes
system.switch_cpus_1.timesIdled                886950                       # Number of times that the entire CPU went into an idle state and unscheduled itself
system.switch_cpus_1.idleCycles              14892749                       # Total number of cycles that the CPU has spent unscheduled due to idling
system.switch_cpus_1.committedInsts         500000005                       # Number of Instructions Simulated
system.switch_cpus_1.committedOps           500000005                       # Number of Ops (including micro ops) Simulated
system.switch_cpus_1.cpi                     0.679025                       # CPI: Cycles Per Instruction
system.switch_cpus_1.cpi_total               0.679025                       # CPI: Total CPI of All Threads
system.switch_cpus_1.ipc                     1.472700                       # IPC: Instructions Per Cycle
system.switch_cpus_1.ipc_total               1.472700                       # IPC: Total IPC of All Threads
system.switch_cpus_1.int_regfile_reads      707104982                       # number of integer regfile reads
system.switch_cpus_1.int_regfile_writes     384537259                       # number of integer regfile writes
system.switch_cpus_1.fp_regfile_reads          206285                       # number of floating regfile reads
system.switch_cpus_1.fp_regfile_writes         116594                       # number of floating regfile writes
system.switch_cpus_1.misc_regfile_reads        147141                       # number of misc regfile reads
system.switch_cpus_1.misc_regfile_writes       128611                       # number of misc regfile writes
system.tol3bus.snoop_filter.tot_requests      2816630                       # Total number of requests made to the snoop filter.
system.tol3bus.snoop_filter.hit_single_requests      1406368                       # Number of requests hitting in the snoop filter with a single holder of the requested data.
system.tol3bus.snoop_filter.hit_multi_requests            0                       # Number of requests hitting in the snoop filter with multiple (>1) holders of the requested data.
system.tol3bus.snoop_filter.tot_snoops           1922                       # Total number of snoops made to the snoop filter.
system.tol3bus.snoop_filter.hit_single_snoops         1922                       # Number of snoops hitting in the snoop filter with a single holder of the requested data.
system.tol3bus.snoop_filter.hit_multi_snoops            0                       # Number of snoops hitting in the snoop filter with multiple (>1) holders of the requested data.
system.tol3bus.pwrStateResidencyTicks::UNDEFINED 71180398125558                       # Cumulative time (in ticks) in various power states
system.tol3bus.trans_dist::ReadResp           1311689                       # Transaction distribution
system.tol3bus.trans_dist::WritebackDirty       383906                       # Transaction distribution
system.tol3bus.trans_dist::CleanEvict         1527027                       # Transaction distribution
system.tol3bus.trans_dist::UpgradeReq              11                       # Transaction distribution
system.tol3bus.trans_dist::UpgradeResp             11                       # Transaction distribution
system.tol3bus.trans_dist::ReadExReq            98573                       # Transaction distribution
system.tol3bus.trans_dist::ReadExResp           98573                       # Transaction distribution
system.tol3bus.trans_dist::ReadSharedReq      1311689                       # Transaction distribution
system.tol3bus.pkt_count_system.cpu.l2.mem_side::system.l3.cpu_side      4226903                       # Packet count per connected master and slave (bytes)
system.tol3bus.pkt_size_system.cpu.l2.mem_side::system.l3.cpu_side    109736768                       # Cumulative packet size per connected master and slave (bytes)
system.tol3bus.snoops                          504576                       # Total snoops (count)
system.tol3bus.snoopTraffic                   5089984                       # Total snoop traffic (bytes)
system.tol3bus.snoop_fanout::samples          1914849                       # Request fanout histogram
system.tol3bus.snoop_fanout::mean            0.001004                       # Request fanout histogram
system.tol3bus.snoop_fanout::stdev           0.031666                       # Request fanout histogram
system.tol3bus.snoop_fanout::underflows             0      0.00%      0.00% # Request fanout histogram
system.tol3bus.snoop_fanout::0                1912927     99.90%     99.90% # Request fanout histogram
system.tol3bus.snoop_fanout::1                   1922      0.10%    100.00% # Request fanout histogram
system.tol3bus.snoop_fanout::overflows              0      0.00%    100.00% # Request fanout histogram
system.tol3bus.snoop_fanout::min_value              0                       # Request fanout histogram
system.tol3bus.snoop_fanout::max_value              1                       # Request fanout histogram
system.tol3bus.snoop_fanout::total            1914849                       # Request fanout histogram
system.tol3bus.reqLayer0.occupancy         1039294665                       # Layer occupancy (ticks)
system.tol3bus.reqLayer0.utilization              0.1                       # Layer utilization (%)
system.tol3bus.respLayer0.occupancy         939238155                       # Layer occupancy (ticks)
system.tol3bus.respLayer0.utilization             0.1                       # Layer utilization (%)

---------- End Simulation Statistics   ----------
