
---------- Begin Simulation Statistics ----------
sim_seconds                                  3.763522                       # Number of seconds simulated
sim_ticks                                3763522150560                       # Number of ticks simulated
final_tick                               73793494731906                       # Number of ticks from beginning of simulation (restored from checkpoints and never reset)
sim_freq                                 1000000000000                       # Frequency of simulated ticks
host_inst_rate                                 206773                       # Simulator instruction rate (inst/s)
host_op_rate                                   206773                       # Simulator op (including micro ops) rate (op/s)
host_tick_rate                              648494720                       # Simulator tick rate (ticks/s)
host_mem_usage                                2504320                       # Number of bytes of host memory used
host_seconds                                  5803.47                       # Real time elapsed on the host
sim_insts                                  1200000014                       # Number of instructions simulated
sim_ops                                    1200000014                       # Number of ops (including micro ops) simulated
system.voltage_domain.voltage                       1                       # Voltage in Volts
system.clk_domain.clock                          1000                       # Clock period in ticks
system.mem_ctrls0.pwrStateResidencyTicks::UNDEFINED 73793494731906                       # Cumulative time (in ticks) in various power states
system.mem_ctrls0.bytes_read::cpu.inst             64                       # Number of bytes read from this memory
system.mem_ctrls0.bytes_read::cpu.data            128                       # Number of bytes read from this memory
system.mem_ctrls0.bytes_read::switch_cpus.inst       150400                       # Number of bytes read from this memory
system.mem_ctrls0.bytes_read::switch_cpus.data    408031552                       # Number of bytes read from this memory
system.mem_ctrls0.bytes_read::switch_cpus_1.inst        44224                       # Number of bytes read from this memory
system.mem_ctrls0.bytes_read::switch_cpus_1.data     84447744                       # Number of bytes read from this memory
system.mem_ctrls0.bytes_read::total         492674112                       # Number of bytes read from this memory
system.mem_ctrls0.bytes_inst_read::cpu.inst           64                       # Number of instructions bytes read from this memory
system.mem_ctrls0.bytes_inst_read::switch_cpus.inst       150400                       # Number of instructions bytes read from this memory
system.mem_ctrls0.bytes_inst_read::switch_cpus_1.inst        44224                       # Number of instructions bytes read from this memory
system.mem_ctrls0.bytes_inst_read::total       194688                       # Number of instructions bytes read from this memory
system.mem_ctrls0.bytes_written::writebacks    160797376                       # Number of bytes written to this memory
system.mem_ctrls0.bytes_written::total      160797376                       # Number of bytes written to this memory
system.mem_ctrls0.num_reads::cpu.inst               1                       # Number of read requests responded to by this memory
system.mem_ctrls0.num_reads::cpu.data               2                       # Number of read requests responded to by this memory
system.mem_ctrls0.num_reads::switch_cpus.inst         2350                       # Number of read requests responded to by this memory
system.mem_ctrls0.num_reads::switch_cpus.data      6375493                       # Number of read requests responded to by this memory
system.mem_ctrls0.num_reads::switch_cpus_1.inst          691                       # Number of read requests responded to by this memory
system.mem_ctrls0.num_reads::switch_cpus_1.data      1319496                       # Number of read requests responded to by this memory
system.mem_ctrls0.num_reads::total            7698033                       # Number of read requests responded to by this memory
system.mem_ctrls0.num_writes::writebacks      2512459                       # Number of write requests responded to by this memory
system.mem_ctrls0.num_writes::total           2512459                       # Number of write requests responded to by this memory
system.mem_ctrls0.bw_read::cpu.inst                17                       # Total read bandwidth from this memory (bytes/s)
system.mem_ctrls0.bw_read::cpu.data                34                       # Total read bandwidth from this memory (bytes/s)
system.mem_ctrls0.bw_read::switch_cpus.inst        39963                       # Total read bandwidth from this memory (bytes/s)
system.mem_ctrls0.bw_read::switch_cpus.data    108417471                       # Total read bandwidth from this memory (bytes/s)
system.mem_ctrls0.bw_read::switch_cpus_1.inst        11751                       # Total read bandwidth from this memory (bytes/s)
system.mem_ctrls0.bw_read::switch_cpus_1.data     22438487                       # Total read bandwidth from this memory (bytes/s)
system.mem_ctrls0.bw_read::total            130907722                       # Total read bandwidth from this memory (bytes/s)
system.mem_ctrls0.bw_inst_read::cpu.inst           17                       # Instruction read bandwidth from this memory (bytes/s)
system.mem_ctrls0.bw_inst_read::switch_cpus.inst        39963                       # Instruction read bandwidth from this memory (bytes/s)
system.mem_ctrls0.bw_inst_read::switch_cpus_1.inst        11751                       # Instruction read bandwidth from this memory (bytes/s)
system.mem_ctrls0.bw_inst_read::total           51730                       # Instruction read bandwidth from this memory (bytes/s)
system.mem_ctrls0.bw_write::writebacks       42725237                       # Write bandwidth from this memory (bytes/s)
system.mem_ctrls0.bw_write::total            42725237                       # Write bandwidth from this memory (bytes/s)
system.mem_ctrls0.bw_total::writebacks       42725237                       # Total bandwidth to/from this memory (bytes/s)
system.mem_ctrls0.bw_total::cpu.inst               17                       # Total bandwidth to/from this memory (bytes/s)
system.mem_ctrls0.bw_total::cpu.data               34                       # Total bandwidth to/from this memory (bytes/s)
system.mem_ctrls0.bw_total::switch_cpus.inst        39963                       # Total bandwidth to/from this memory (bytes/s)
system.mem_ctrls0.bw_total::switch_cpus.data    108417471                       # Total bandwidth to/from this memory (bytes/s)
system.mem_ctrls0.bw_total::switch_cpus_1.inst        11751                       # Total bandwidth to/from this memory (bytes/s)
system.mem_ctrls0.bw_total::switch_cpus_1.data     22438487                       # Total bandwidth to/from this memory (bytes/s)
system.mem_ctrls0.bw_total::total           173632959                       # Total bandwidth to/from this memory (bytes/s)
system.mem_ctrls0.readReqs                    7698033                       # Number of read requests accepted
system.mem_ctrls0.writeReqs                   2512459                       # Number of write requests accepted
system.mem_ctrls0.readBursts                  7698033                       # Number of DRAM read bursts, including those serviced by the write queue
system.mem_ctrls0.writeBursts                 2512459                       # Number of DRAM write bursts, including those merged in the write queue
system.mem_ctrls0.bytesReadDRAM             492332864                       # Total number of bytes read from DRAM
system.mem_ctrls0.bytesReadWrQ                 341248                       # Total number of bytes read from write queue
system.mem_ctrls0.bytesWritten              160795840                       # Total number of bytes written to DRAM
system.mem_ctrls0.bytesReadSys              492674112                       # Total read bytes from the system interface side
system.mem_ctrls0.bytesWrittenSys           160797376                       # Total written bytes from the system interface side
system.mem_ctrls0.servicedByWrQ                  5332                       # Number of DRAM read bursts serviced by the write queue
system.mem_ctrls0.mergedWrBursts                    0                       # Number of DRAM write bursts merged with an existing one
system.mem_ctrls0.neitherReadNorWriteReqs            0                       # Number of requests that are neither read nor write
system.mem_ctrls0.perBankRdBursts::0           516115                       # Per bank write bursts
system.mem_ctrls0.perBankRdBursts::1           487514                       # Per bank write bursts
system.mem_ctrls0.perBankRdBursts::2           479228                       # Per bank write bursts
system.mem_ctrls0.perBankRdBursts::3           482629                       # Per bank write bursts
system.mem_ctrls0.perBankRdBursts::4           479811                       # Per bank write bursts
system.mem_ctrls0.perBankRdBursts::5           491970                       # Per bank write bursts
system.mem_ctrls0.perBankRdBursts::6           465745                       # Per bank write bursts
system.mem_ctrls0.perBankRdBursts::7           476268                       # Per bank write bursts
system.mem_ctrls0.perBankRdBursts::8           486186                       # Per bank write bursts
system.mem_ctrls0.perBankRdBursts::9           479001                       # Per bank write bursts
system.mem_ctrls0.perBankRdBursts::10          468794                       # Per bank write bursts
system.mem_ctrls0.perBankRdBursts::11          480919                       # Per bank write bursts
system.mem_ctrls0.perBankRdBursts::12          470423                       # Per bank write bursts
system.mem_ctrls0.perBankRdBursts::13          469208                       # Per bank write bursts
system.mem_ctrls0.perBankRdBursts::14          474776                       # Per bank write bursts
system.mem_ctrls0.perBankRdBursts::15          484114                       # Per bank write bursts
system.mem_ctrls0.perBankWrBursts::0           168797                       # Per bank write bursts
system.mem_ctrls0.perBankWrBursts::1           155048                       # Per bank write bursts
system.mem_ctrls0.perBankWrBursts::2           158336                       # Per bank write bursts
system.mem_ctrls0.perBankWrBursts::3           159948                       # Per bank write bursts
system.mem_ctrls0.perBankWrBursts::4           157297                       # Per bank write bursts
system.mem_ctrls0.perBankWrBursts::5           158784                       # Per bank write bursts
system.mem_ctrls0.perBankWrBursts::6           151154                       # Per bank write bursts
system.mem_ctrls0.perBankWrBursts::7           153816                       # Per bank write bursts
system.mem_ctrls0.perBankWrBursts::8           155067                       # Per bank write bursts
system.mem_ctrls0.perBankWrBursts::9           153218                       # Per bank write bursts
system.mem_ctrls0.perBankWrBursts::10          151878                       # Per bank write bursts
system.mem_ctrls0.perBankWrBursts::11          152194                       # Per bank write bursts
system.mem_ctrls0.perBankWrBursts::12          151383                       # Per bank write bursts
system.mem_ctrls0.perBankWrBursts::13          155173                       # Per bank write bursts
system.mem_ctrls0.perBankWrBursts::14          163151                       # Per bank write bursts
system.mem_ctrls0.perBankWrBursts::15          167191                       # Per bank write bursts
system.mem_ctrls0.numRdRetry                        0                       # Number of times read queue was full causing retry
system.mem_ctrls0.numWrRetry                        0                       # Number of times write queue was full causing retry
system.mem_ctrls0.totGap                 3763521421956                       # Total gap between requests
system.mem_ctrls0.readPktSize::0                    0                       # Read request sizes (log2)
system.mem_ctrls0.readPktSize::1                    0                       # Read request sizes (log2)
system.mem_ctrls0.readPktSize::2                    0                       # Read request sizes (log2)
system.mem_ctrls0.readPktSize::3                    0                       # Read request sizes (log2)
system.mem_ctrls0.readPktSize::4                    0                       # Read request sizes (log2)
system.mem_ctrls0.readPktSize::5                    0                       # Read request sizes (log2)
system.mem_ctrls0.readPktSize::6              7698033                       # Read request sizes (log2)
system.mem_ctrls0.writePktSize::0                   0                       # Write request sizes (log2)
system.mem_ctrls0.writePktSize::1                   0                       # Write request sizes (log2)
system.mem_ctrls0.writePktSize::2                   0                       # Write request sizes (log2)
system.mem_ctrls0.writePktSize::3                   0                       # Write request sizes (log2)
system.mem_ctrls0.writePktSize::4                   0                       # Write request sizes (log2)
system.mem_ctrls0.writePktSize::5                   0                       # Write request sizes (log2)
system.mem_ctrls0.writePktSize::6             2512459                       # Write request sizes (log2)
system.mem_ctrls0.rdQLenPdf::0                7343730                       # What read queue length does an incoming req see
system.mem_ctrls0.rdQLenPdf::1                 297937                       # What read queue length does an incoming req see
system.mem_ctrls0.rdQLenPdf::2                  47460                       # What read queue length does an incoming req see
system.mem_ctrls0.rdQLenPdf::3                   3573                       # What read queue length does an incoming req see
system.mem_ctrls0.rdQLenPdf::4                      1                       # What read queue length does an incoming req see
system.mem_ctrls0.rdQLenPdf::5                      0                       # What read queue length does an incoming req see
system.mem_ctrls0.rdQLenPdf::6                      0                       # What read queue length does an incoming req see
system.mem_ctrls0.rdQLenPdf::7                      0                       # What read queue length does an incoming req see
system.mem_ctrls0.rdQLenPdf::8                      0                       # What read queue length does an incoming req see
system.mem_ctrls0.rdQLenPdf::9                      0                       # What read queue length does an incoming req see
system.mem_ctrls0.rdQLenPdf::10                     0                       # What read queue length does an incoming req see
system.mem_ctrls0.rdQLenPdf::11                     0                       # What read queue length does an incoming req see
system.mem_ctrls0.rdQLenPdf::12                     0                       # What read queue length does an incoming req see
system.mem_ctrls0.rdQLenPdf::13                     0                       # What read queue length does an incoming req see
system.mem_ctrls0.rdQLenPdf::14                     0                       # What read queue length does an incoming req see
system.mem_ctrls0.rdQLenPdf::15                     0                       # What read queue length does an incoming req see
system.mem_ctrls0.rdQLenPdf::16                     0                       # What read queue length does an incoming req see
system.mem_ctrls0.rdQLenPdf::17                     0                       # What read queue length does an incoming req see
system.mem_ctrls0.rdQLenPdf::18                     0                       # What read queue length does an incoming req see
system.mem_ctrls0.rdQLenPdf::19                     0                       # What read queue length does an incoming req see
system.mem_ctrls0.rdQLenPdf::20                     0                       # What read queue length does an incoming req see
system.mem_ctrls0.rdQLenPdf::21                     0                       # What read queue length does an incoming req see
system.mem_ctrls0.rdQLenPdf::22                     0                       # What read queue length does an incoming req see
system.mem_ctrls0.rdQLenPdf::23                     0                       # What read queue length does an incoming req see
system.mem_ctrls0.rdQLenPdf::24                     0                       # What read queue length does an incoming req see
system.mem_ctrls0.rdQLenPdf::25                     0                       # What read queue length does an incoming req see
system.mem_ctrls0.rdQLenPdf::26                     0                       # What read queue length does an incoming req see
system.mem_ctrls0.rdQLenPdf::27                     0                       # What read queue length does an incoming req see
system.mem_ctrls0.rdQLenPdf::28                     0                       # What read queue length does an incoming req see
system.mem_ctrls0.rdQLenPdf::29                     0                       # What read queue length does an incoming req see
system.mem_ctrls0.rdQLenPdf::30                     0                       # What read queue length does an incoming req see
system.mem_ctrls0.rdQLenPdf::31                     0                       # What read queue length does an incoming req see
system.mem_ctrls0.wrQLenPdf::0                      2                       # What write queue length does an incoming req see
system.mem_ctrls0.wrQLenPdf::1                      2                       # What write queue length does an incoming req see
system.mem_ctrls0.wrQLenPdf::2                      2                       # What write queue length does an incoming req see
system.mem_ctrls0.wrQLenPdf::3                      2                       # What write queue length does an incoming req see
system.mem_ctrls0.wrQLenPdf::4                      2                       # What write queue length does an incoming req see
system.mem_ctrls0.wrQLenPdf::5                      2                       # What write queue length does an incoming req see
system.mem_ctrls0.wrQLenPdf::6                      2                       # What write queue length does an incoming req see
system.mem_ctrls0.wrQLenPdf::7                      2                       # What write queue length does an incoming req see
system.mem_ctrls0.wrQLenPdf::8                      2                       # What write queue length does an incoming req see
system.mem_ctrls0.wrQLenPdf::9                      2                       # What write queue length does an incoming req see
system.mem_ctrls0.wrQLenPdf::10                     2                       # What write queue length does an incoming req see
system.mem_ctrls0.wrQLenPdf::11                     2                       # What write queue length does an incoming req see
system.mem_ctrls0.wrQLenPdf::12                     2                       # What write queue length does an incoming req see
system.mem_ctrls0.wrQLenPdf::13                     2                       # What write queue length does an incoming req see
system.mem_ctrls0.wrQLenPdf::14                     2                       # What write queue length does an incoming req see
system.mem_ctrls0.wrQLenPdf::15                110085                       # What write queue length does an incoming req see
system.mem_ctrls0.wrQLenPdf::16                114507                       # What write queue length does an incoming req see
system.mem_ctrls0.wrQLenPdf::17                140354                       # What write queue length does an incoming req see
system.mem_ctrls0.wrQLenPdf::18                142704                       # What write queue length does an incoming req see
system.mem_ctrls0.wrQLenPdf::19                142966                       # What write queue length does an incoming req see
system.mem_ctrls0.wrQLenPdf::20                143018                       # What write queue length does an incoming req see
system.mem_ctrls0.wrQLenPdf::21                143180                       # What write queue length does an incoming req see
system.mem_ctrls0.wrQLenPdf::22                143818                       # What write queue length does an incoming req see
system.mem_ctrls0.wrQLenPdf::23                144425                       # What write queue length does an incoming req see
system.mem_ctrls0.wrQLenPdf::24                143408                       # What write queue length does an incoming req see
system.mem_ctrls0.wrQLenPdf::25                143086                       # What write queue length does an incoming req see
system.mem_ctrls0.wrQLenPdf::26                143026                       # What write queue length does an incoming req see
system.mem_ctrls0.wrQLenPdf::27                142989                       # What write queue length does an incoming req see
system.mem_ctrls0.wrQLenPdf::28                142979                       # What write queue length does an incoming req see
system.mem_ctrls0.wrQLenPdf::29                143064                       # What write queue length does an incoming req see
system.mem_ctrls0.wrQLenPdf::30                143601                       # What write queue length does an incoming req see
system.mem_ctrls0.wrQLenPdf::31                142523                       # What write queue length does an incoming req see
system.mem_ctrls0.wrQLenPdf::32                142443                       # What write queue length does an incoming req see
system.mem_ctrls0.wrQLenPdf::33                   177                       # What write queue length does an incoming req see
system.mem_ctrls0.wrQLenPdf::34                    52                       # What write queue length does an incoming req see
system.mem_ctrls0.wrQLenPdf::35                    19                       # What write queue length does an incoming req see
system.mem_ctrls0.wrQLenPdf::36                     4                       # What write queue length does an incoming req see
system.mem_ctrls0.wrQLenPdf::37                     1                       # What write queue length does an incoming req see
system.mem_ctrls0.wrQLenPdf::38                     0                       # What write queue length does an incoming req see
system.mem_ctrls0.wrQLenPdf::39                     0                       # What write queue length does an incoming req see
system.mem_ctrls0.wrQLenPdf::40                     0                       # What write queue length does an incoming req see
system.mem_ctrls0.wrQLenPdf::41                     0                       # What write queue length does an incoming req see
system.mem_ctrls0.wrQLenPdf::42                     0                       # What write queue length does an incoming req see
system.mem_ctrls0.wrQLenPdf::43                     0                       # What write queue length does an incoming req see
system.mem_ctrls0.wrQLenPdf::44                     0                       # What write queue length does an incoming req see
system.mem_ctrls0.wrQLenPdf::45                     0                       # What write queue length does an incoming req see
system.mem_ctrls0.wrQLenPdf::46                     0                       # What write queue length does an incoming req see
system.mem_ctrls0.wrQLenPdf::47                     0                       # What write queue length does an incoming req see
system.mem_ctrls0.wrQLenPdf::48                     0                       # What write queue length does an incoming req see
system.mem_ctrls0.wrQLenPdf::49                     0                       # What write queue length does an incoming req see
system.mem_ctrls0.wrQLenPdf::50                     0                       # What write queue length does an incoming req see
system.mem_ctrls0.wrQLenPdf::51                     0                       # What write queue length does an incoming req see
system.mem_ctrls0.wrQLenPdf::52                     0                       # What write queue length does an incoming req see
system.mem_ctrls0.wrQLenPdf::53                     0                       # What write queue length does an incoming req see
system.mem_ctrls0.wrQLenPdf::54                     0                       # What write queue length does an incoming req see
system.mem_ctrls0.wrQLenPdf::55                     0                       # What write queue length does an incoming req see
system.mem_ctrls0.wrQLenPdf::56                     0                       # What write queue length does an incoming req see
system.mem_ctrls0.wrQLenPdf::57                     0                       # What write queue length does an incoming req see
system.mem_ctrls0.wrQLenPdf::58                     0                       # What write queue length does an incoming req see
system.mem_ctrls0.wrQLenPdf::59                     0                       # What write queue length does an incoming req see
system.mem_ctrls0.wrQLenPdf::60                     0                       # What write queue length does an incoming req see
system.mem_ctrls0.wrQLenPdf::61                     0                       # What write queue length does an incoming req see
system.mem_ctrls0.wrQLenPdf::62                     0                       # What write queue length does an incoming req see
system.mem_ctrls0.wrQLenPdf::63                     0                       # What write queue length does an incoming req see
system.mem_ctrls0.bytesPerActivate::samples      4640071                       # Bytes accessed per row activation
system.mem_ctrls0.bytesPerActivate::mean   140.758260                       # Bytes accessed per row activation
system.mem_ctrls0.bytesPerActivate::gmean    99.851951                       # Bytes accessed per row activation
system.mem_ctrls0.bytesPerActivate::stdev   168.041981                       # Bytes accessed per row activation
system.mem_ctrls0.bytesPerActivate::0-127      2968534     63.98%     63.98% # Bytes accessed per row activation
system.mem_ctrls0.bytesPerActivate::128-255      1020891     22.00%     85.98% # Bytes accessed per row activation
system.mem_ctrls0.bytesPerActivate::256-383       263008      5.67%     91.65% # Bytes accessed per row activation
system.mem_ctrls0.bytesPerActivate::384-511       121472      2.62%     94.26% # Bytes accessed per row activation
system.mem_ctrls0.bytesPerActivate::512-639        95145      2.05%     96.31% # Bytes accessed per row activation
system.mem_ctrls0.bytesPerActivate::640-767        63591      1.37%     97.68% # Bytes accessed per row activation
system.mem_ctrls0.bytesPerActivate::768-895        39773      0.86%     98.54% # Bytes accessed per row activation
system.mem_ctrls0.bytesPerActivate::896-1023        25464      0.55%     99.09% # Bytes accessed per row activation
system.mem_ctrls0.bytesPerActivate::1024-1151        42193      0.91%    100.00% # Bytes accessed per row activation
system.mem_ctrls0.bytesPerActivate::total      4640071                       # Bytes accessed per row activation
system.mem_ctrls0.rdPerTurnAround::samples       142401                       # Reads before turning the bus around for writes
system.mem_ctrls0.rdPerTurnAround::mean     54.016882                       # Reads before turning the bus around for writes
system.mem_ctrls0.rdPerTurnAround::stdev   136.952974                       # Reads before turning the bus around for writes
system.mem_ctrls0.rdPerTurnAround::0-1023       142082     99.78%     99.78% # Reads before turning the bus around for writes
system.mem_ctrls0.rdPerTurnAround::1024-2047          275      0.19%     99.97% # Reads before turning the bus around for writes
system.mem_ctrls0.rdPerTurnAround::2048-3071           26      0.02%     99.99% # Reads before turning the bus around for writes
system.mem_ctrls0.rdPerTurnAround::3072-4095           12      0.01%    100.00% # Reads before turning the bus around for writes
system.mem_ctrls0.rdPerTurnAround::4096-5119            4      0.00%    100.00% # Reads before turning the bus around for writes
system.mem_ctrls0.rdPerTurnAround::5120-6143            1      0.00%    100.00% # Reads before turning the bus around for writes
system.mem_ctrls0.rdPerTurnAround::31744-32767            1      0.00%    100.00% # Reads before turning the bus around for writes
system.mem_ctrls0.rdPerTurnAround::total       142401                       # Reads before turning the bus around for writes
system.mem_ctrls0.wrPerTurnAround::samples       142401                       # Writes before turning the bus around for reads
system.mem_ctrls0.wrPerTurnAround::mean     17.643380                       # Writes before turning the bus around for reads
system.mem_ctrls0.wrPerTurnAround::gmean    17.620845                       # Writes before turning the bus around for reads
system.mem_ctrls0.wrPerTurnAround::stdev     0.877187                       # Writes before turning the bus around for reads
system.mem_ctrls0.wrPerTurnAround::16           28125     19.75%     19.75% # Writes before turning the bus around for reads
system.mem_ctrls0.wrPerTurnAround::17            3639      2.56%     22.31% # Writes before turning the bus around for reads
system.mem_ctrls0.wrPerTurnAround::18          102501     71.98%     94.29% # Writes before turning the bus around for reads
system.mem_ctrls0.wrPerTurnAround::19            7344      5.16%     99.44% # Writes before turning the bus around for reads
system.mem_ctrls0.wrPerTurnAround::20             662      0.46%     99.91% # Writes before turning the bus around for reads
system.mem_ctrls0.wrPerTurnAround::21              98      0.07%     99.98% # Writes before turning the bus around for reads
system.mem_ctrls0.wrPerTurnAround::22              21      0.01%     99.99% # Writes before turning the bus around for reads
system.mem_ctrls0.wrPerTurnAround::23               7      0.00%    100.00% # Writes before turning the bus around for reads
system.mem_ctrls0.wrPerTurnAround::24               3      0.00%    100.00% # Writes before turning the bus around for reads
system.mem_ctrls0.wrPerTurnAround::25               1      0.00%    100.00% # Writes before turning the bus around for reads
system.mem_ctrls0.wrPerTurnAround::total       142401                       # Writes before turning the bus around for reads
system.mem_ctrls0.totQLat                152498125331                       # Total ticks spent queuing
system.mem_ctrls0.totMemAccLat           296736269081                       # Total ticks spent from burst creation until serviced by the DRAM
system.mem_ctrls0.totBusLat               38463505000                       # Total ticks spent in databus transfers
system.mem_ctrls0.avgQLat                    19823.74                       # Average queueing delay per DRAM burst
system.mem_ctrls0.avgBusLat                   5000.00                       # Average bus latency per DRAM burst
system.mem_ctrls0.avgMemAccLat               38573.74                       # Average memory access latency per DRAM burst
system.mem_ctrls0.avgRdBW                      130.82                       # Average DRAM read bandwidth in MiByte/s
system.mem_ctrls0.avgWrBW                       42.72                       # Average achieved write bandwidth in MiByte/s
system.mem_ctrls0.avgRdBWSys                   130.91                       # Average system read bandwidth in MiByte/s
system.mem_ctrls0.avgWrBWSys                    42.73                       # Average system write bandwidth in MiByte/s
system.mem_ctrls0.peakBW                     12800.00                       # Theoretical peak bandwidth in MiByte/s
system.mem_ctrls0.busUtil                        1.36                       # Data bus utilization in percentage
system.mem_ctrls0.busUtilRead                    1.02                       # Data bus utilization in percentage for reads
system.mem_ctrls0.busUtilWrite                   0.33                       # Data bus utilization in percentage for writes
system.mem_ctrls0.avgRdQLen                      1.02                       # Average read queue length when enqueuing
system.mem_ctrls0.avgWrQLen                     24.57                       # Average write queue length when enqueuing
system.mem_ctrls0.readRowHits                 4899666                       # Number of row buffer hits during reads
system.mem_ctrls0.writeRowHits                 665394                       # Number of row buffer hits during writes
system.mem_ctrls0.readRowHitRate                63.69                       # Row buffer hit rate for reads
system.mem_ctrls0.writeRowHitRate               26.48                       # Row buffer hit rate for writes
system.mem_ctrls0.avgGap                    368593.54                       # Average gap between requests
system.mem_ctrls0.pageHitRate                   54.53                       # Row buffer hit rate, read and write combined
system.mem_ctrls0_0.actEnergy             16627082220                       # Energy for activate commands per rank (pJ)
system.mem_ctrls0_0.preEnergy              8837492400                       # Energy for precharge commands per rank (pJ)
system.mem_ctrls0_0.readEnergy            27698059200                       # Energy for read commands per rank (pJ)
system.mem_ctrls0_0.writeEnergy            6593799600                       # Energy for write commands per rank (pJ)
system.mem_ctrls0_0.refreshEnergy        286310375520.000061                       # Energy for refresh commands per rank (pJ)
system.mem_ctrls0_0.actBackEnergy        174478299030                       # Energy for active background per rank (pJ)
system.mem_ctrls0_0.preBackEnergy          8210477280                       # Energy for precharge background per rank (pJ)
system.mem_ctrls0_0.actPowerDownEnergy   1175693747700                       # Energy for active power-down per rank (pJ)
system.mem_ctrls0_0.prePowerDownEnergy   190008024480                       # Energy for precharge power-down per rank (pJ)
system.mem_ctrls0_0.selfRefreshEnergy     80187331545                       # Energy for self refresh per rank (pJ)
system.mem_ctrls0_0.totalEnergy          1974759899535                       # Total energy per rank (pJ)
system.mem_ctrls0_0.averagePower           524.710577                       # Core power per rank (mW)
system.mem_ctrls0_0.totalIdleTime        3359260123831                       # Total Idle time Per DRAM Rank
system.mem_ctrls0_0.memoryStateTime::IDLE   8137454018                       # Time in different power states
system.mem_ctrls0_0.memoryStateTime::REF 121249672000                       # Time in different power states
system.mem_ctrls0_0.memoryStateTime::SREF 286168234274                       # Time in different power states
system.mem_ctrls0_0.memoryStateTime::PRE_PDN 494814728529                       # Time in different power states
system.mem_ctrls0_0.memoryStateTime::ACT 274874385765                       # Time in different power states
system.mem_ctrls0_0.memoryStateTime::ACT_PDN 2578277675974                       # Time in different power states
system.mem_ctrls0_1.actEnergy             16503060420                       # Energy for activate commands per rank (pJ)
system.mem_ctrls0_1.preEnergy              8771577045                       # Energy for precharge commands per rank (pJ)
system.mem_ctrls0_1.readEnergy            27227825940                       # Energy for read commands per rank (pJ)
system.mem_ctrls0_1.writeEnergy            6521111100                       # Energy for write commands per rank (pJ)
system.mem_ctrls0_1.refreshEnergy        285752897040.000061                       # Energy for refresh commands per rank (pJ)
system.mem_ctrls0_1.actBackEnergy        176146238730                       # Energy for active background per rank (pJ)
system.mem_ctrls0_1.preBackEnergy          8307695040                       # Energy for precharge background per rank (pJ)
system.mem_ctrls0_1.actPowerDownEnergy   1165660518210                       # Energy for active power-down per rank (pJ)
system.mem_ctrls0_1.prePowerDownEnergy   190351604160                       # Energy for precharge power-down per rank (pJ)
system.mem_ctrls0_1.selfRefreshEnergy     85086093615                       # Energy for self refresh per rank (pJ)
system.mem_ctrls0_1.totalEnergy          1970439997710                       # Total energy per rank (pJ)
system.mem_ctrls0_1.averagePower           523.562741                       # Core power per rank (mW)
system.mem_ctrls0_1.totalIdleTime        3355358705356                       # Total Idle time Per DRAM Rank
system.mem_ctrls0_1.memoryStateTime::IDLE   8498384499                       # Time in different power states
system.mem_ctrls0_1.memoryStateTime::REF 121020746000                       # Time in different power states
system.mem_ctrls0_1.memoryStateTime::SREF 303373695923                       # Time in different power states
system.mem_ctrls0_1.memoryStateTime::PRE_PDN 495707748028                       # Time in different power states
system.mem_ctrls0_1.memoryStateTime::ACT 278643356869                       # Time in different power states
system.mem_ctrls0_1.memoryStateTime::ACT_PDN 2556278219241                       # Time in different power states
system.mem_ctrls1.pwrStateResidencyTicks::UNDEFINED 73793494731906                       # Cumulative time (in ticks) in various power states
system.mem_ctrls1.bytes_read::cpu.inst             64                       # Number of bytes read from this memory
system.mem_ctrls1.bytes_read::switch_cpus.inst       138624                       # Number of bytes read from this memory
system.mem_ctrls1.bytes_read::switch_cpus.data    408320832                       # Number of bytes read from this memory
system.mem_ctrls1.bytes_read::switch_cpus_1.inst        45312                       # Number of bytes read from this memory
system.mem_ctrls1.bytes_read::switch_cpus_1.data     84545280                       # Number of bytes read from this memory
system.mem_ctrls1.bytes_read::total         493050112                       # Number of bytes read from this memory
system.mem_ctrls1.bytes_inst_read::cpu.inst           64                       # Number of instructions bytes read from this memory
system.mem_ctrls1.bytes_inst_read::switch_cpus.inst       138624                       # Number of instructions bytes read from this memory
system.mem_ctrls1.bytes_inst_read::switch_cpus_1.inst        45312                       # Number of instructions bytes read from this memory
system.mem_ctrls1.bytes_inst_read::total       184000                       # Number of instructions bytes read from this memory
system.mem_ctrls1.bytes_written::writebacks    160872064                       # Number of bytes written to this memory
system.mem_ctrls1.bytes_written::total      160872064                       # Number of bytes written to this memory
system.mem_ctrls1.num_reads::cpu.inst               1                       # Number of read requests responded to by this memory
system.mem_ctrls1.num_reads::switch_cpus.inst         2166                       # Number of read requests responded to by this memory
system.mem_ctrls1.num_reads::switch_cpus.data      6380013                       # Number of read requests responded to by this memory
system.mem_ctrls1.num_reads::switch_cpus_1.inst          708                       # Number of read requests responded to by this memory
system.mem_ctrls1.num_reads::switch_cpus_1.data      1321020                       # Number of read requests responded to by this memory
system.mem_ctrls1.num_reads::total            7703908                       # Number of read requests responded to by this memory
system.mem_ctrls1.num_writes::writebacks      2513626                       # Number of write requests responded to by this memory
system.mem_ctrls1.num_writes::total           2513626                       # Number of write requests responded to by this memory
system.mem_ctrls1.bw_read::cpu.inst                17                       # Total read bandwidth from this memory (bytes/s)
system.mem_ctrls1.bw_read::switch_cpus.inst        36834                       # Total read bandwidth from this memory (bytes/s)
system.mem_ctrls1.bw_read::switch_cpus.data    108494335                       # Total read bandwidth from this memory (bytes/s)
system.mem_ctrls1.bw_read::switch_cpus_1.inst        12040                       # Total read bandwidth from this memory (bytes/s)
system.mem_ctrls1.bw_read::switch_cpus_1.data     22464403                       # Total read bandwidth from this memory (bytes/s)
system.mem_ctrls1.bw_read::total            131007629                       # Total read bandwidth from this memory (bytes/s)
system.mem_ctrls1.bw_inst_read::cpu.inst           17                       # Instruction read bandwidth from this memory (bytes/s)
system.mem_ctrls1.bw_inst_read::switch_cpus.inst        36834                       # Instruction read bandwidth from this memory (bytes/s)
system.mem_ctrls1.bw_inst_read::switch_cpus_1.inst        12040                       # Instruction read bandwidth from this memory (bytes/s)
system.mem_ctrls1.bw_inst_read::total           48890                       # Instruction read bandwidth from this memory (bytes/s)
system.mem_ctrls1.bw_write::writebacks       42745082                       # Write bandwidth from this memory (bytes/s)
system.mem_ctrls1.bw_write::total            42745082                       # Write bandwidth from this memory (bytes/s)
system.mem_ctrls1.bw_total::writebacks       42745082                       # Total bandwidth to/from this memory (bytes/s)
system.mem_ctrls1.bw_total::cpu.inst               17                       # Total bandwidth to/from this memory (bytes/s)
system.mem_ctrls1.bw_total::switch_cpus.inst        36834                       # Total bandwidth to/from this memory (bytes/s)
system.mem_ctrls1.bw_total::switch_cpus.data    108494335                       # Total bandwidth to/from this memory (bytes/s)
system.mem_ctrls1.bw_total::switch_cpus_1.inst        12040                       # Total bandwidth to/from this memory (bytes/s)
system.mem_ctrls1.bw_total::switch_cpus_1.data     22464403                       # Total bandwidth to/from this memory (bytes/s)
system.mem_ctrls1.bw_total::total           173752711                       # Total bandwidth to/from this memory (bytes/s)
system.mem_ctrls1.readReqs                    7703908                       # Number of read requests accepted
system.mem_ctrls1.writeReqs                   2513626                       # Number of write requests accepted
system.mem_ctrls1.readBursts                  7703908                       # Number of DRAM read bursts, including those serviced by the write queue
system.mem_ctrls1.writeBursts                 2513626                       # Number of DRAM write bursts, including those merged in the write queue
system.mem_ctrls1.bytesReadDRAM             492724096                       # Total number of bytes read from DRAM
system.mem_ctrls1.bytesReadWrQ                 326016                       # Total number of bytes read from write queue
system.mem_ctrls1.bytesWritten              160870976                       # Total number of bytes written to DRAM
system.mem_ctrls1.bytesReadSys              493050112                       # Total read bytes from the system interface side
system.mem_ctrls1.bytesWrittenSys           160872064                       # Total written bytes from the system interface side
system.mem_ctrls1.servicedByWrQ                  5094                       # Number of DRAM read bursts serviced by the write queue
system.mem_ctrls1.mergedWrBursts                    0                       # Number of DRAM write bursts merged with an existing one
system.mem_ctrls1.neitherReadNorWriteReqs            0                       # Number of requests that are neither read nor write
system.mem_ctrls1.perBankRdBursts::0           515307                       # Per bank write bursts
system.mem_ctrls1.perBankRdBursts::1           486348                       # Per bank write bursts
system.mem_ctrls1.perBankRdBursts::2           480058                       # Per bank write bursts
system.mem_ctrls1.perBankRdBursts::3           485604                       # Per bank write bursts
system.mem_ctrls1.perBankRdBursts::4           481750                       # Per bank write bursts
system.mem_ctrls1.perBankRdBursts::5           492401                       # Per bank write bursts
system.mem_ctrls1.perBankRdBursts::6           469008                       # Per bank write bursts
system.mem_ctrls1.perBankRdBursts::7           472878                       # Per bank write bursts
system.mem_ctrls1.perBankRdBursts::8           488759                       # Per bank write bursts
system.mem_ctrls1.perBankRdBursts::9           473715                       # Per bank write bursts
system.mem_ctrls1.perBankRdBursts::10          473876                       # Per bank write bursts
system.mem_ctrls1.perBankRdBursts::11          480590                       # Per bank write bursts
system.mem_ctrls1.perBankRdBursts::12          471725                       # Per bank write bursts
system.mem_ctrls1.perBankRdBursts::13          473767                       # Per bank write bursts
system.mem_ctrls1.perBankRdBursts::14          471656                       # Per bank write bursts
system.mem_ctrls1.perBankRdBursts::15          481372                       # Per bank write bursts
system.mem_ctrls1.perBankWrBursts::0           168599                       # Per bank write bursts
system.mem_ctrls1.perBankWrBursts::1           155285                       # Per bank write bursts
system.mem_ctrls1.perBankWrBursts::2           158426                       # Per bank write bursts
system.mem_ctrls1.perBankWrBursts::3           160419                       # Per bank write bursts
system.mem_ctrls1.perBankWrBursts::4           158060                       # Per bank write bursts
system.mem_ctrls1.perBankWrBursts::5           158454                       # Per bank write bursts
system.mem_ctrls1.perBankWrBursts::6           152077                       # Per bank write bursts
system.mem_ctrls1.perBankWrBursts::7           153562                       # Per bank write bursts
system.mem_ctrls1.perBankWrBursts::8           155148                       # Per bank write bursts
system.mem_ctrls1.perBankWrBursts::9           152446                       # Per bank write bursts
system.mem_ctrls1.perBankWrBursts::10          151875                       # Per bank write bursts
system.mem_ctrls1.perBankWrBursts::11          152418                       # Per bank write bursts
system.mem_ctrls1.perBankWrBursts::12          151555                       # Per bank write bursts
system.mem_ctrls1.perBankWrBursts::13          155001                       # Per bank write bursts
system.mem_ctrls1.perBankWrBursts::14          163737                       # Per bank write bursts
system.mem_ctrls1.perBankWrBursts::15          166547                       # Per bank write bursts
system.mem_ctrls1.numRdRetry                        0                       # Number of times read queue was full causing retry
system.mem_ctrls1.numWrRetry                        0                       # Number of times write queue was full causing retry
system.mem_ctrls1.totGap                 3763521987723                       # Total gap between requests
system.mem_ctrls1.readPktSize::0                    0                       # Read request sizes (log2)
system.mem_ctrls1.readPktSize::1                    0                       # Read request sizes (log2)
system.mem_ctrls1.readPktSize::2                    0                       # Read request sizes (log2)
system.mem_ctrls1.readPktSize::3                    0                       # Read request sizes (log2)
system.mem_ctrls1.readPktSize::4                    0                       # Read request sizes (log2)
system.mem_ctrls1.readPktSize::5                    0                       # Read request sizes (log2)
system.mem_ctrls1.readPktSize::6              7703908                       # Read request sizes (log2)
system.mem_ctrls1.writePktSize::0                   0                       # Write request sizes (log2)
system.mem_ctrls1.writePktSize::1                   0                       # Write request sizes (log2)
system.mem_ctrls1.writePktSize::2                   0                       # Write request sizes (log2)
system.mem_ctrls1.writePktSize::3                   0                       # Write request sizes (log2)
system.mem_ctrls1.writePktSize::4                   0                       # Write request sizes (log2)
system.mem_ctrls1.writePktSize::5                   0                       # Write request sizes (log2)
system.mem_ctrls1.writePktSize::6             2513626                       # Write request sizes (log2)
system.mem_ctrls1.rdQLenPdf::0                7349606                       # What read queue length does an incoming req see
system.mem_ctrls1.rdQLenPdf::1                 298685                       # What read queue length does an incoming req see
system.mem_ctrls1.rdQLenPdf::2                  46900                       # What read queue length does an incoming req see
system.mem_ctrls1.rdQLenPdf::3                   3621                       # What read queue length does an incoming req see
system.mem_ctrls1.rdQLenPdf::4                      2                       # What read queue length does an incoming req see
system.mem_ctrls1.rdQLenPdf::5                      0                       # What read queue length does an incoming req see
system.mem_ctrls1.rdQLenPdf::6                      0                       # What read queue length does an incoming req see
system.mem_ctrls1.rdQLenPdf::7                      0                       # What read queue length does an incoming req see
system.mem_ctrls1.rdQLenPdf::8                      0                       # What read queue length does an incoming req see
system.mem_ctrls1.rdQLenPdf::9                      0                       # What read queue length does an incoming req see
system.mem_ctrls1.rdQLenPdf::10                     0                       # What read queue length does an incoming req see
system.mem_ctrls1.rdQLenPdf::11                     0                       # What read queue length does an incoming req see
system.mem_ctrls1.rdQLenPdf::12                     0                       # What read queue length does an incoming req see
system.mem_ctrls1.rdQLenPdf::13                     0                       # What read queue length does an incoming req see
system.mem_ctrls1.rdQLenPdf::14                     0                       # What read queue length does an incoming req see
system.mem_ctrls1.rdQLenPdf::15                     0                       # What read queue length does an incoming req see
system.mem_ctrls1.rdQLenPdf::16                     0                       # What read queue length does an incoming req see
system.mem_ctrls1.rdQLenPdf::17                     0                       # What read queue length does an incoming req see
system.mem_ctrls1.rdQLenPdf::18                     0                       # What read queue length does an incoming req see
system.mem_ctrls1.rdQLenPdf::19                     0                       # What read queue length does an incoming req see
system.mem_ctrls1.rdQLenPdf::20                     0                       # What read queue length does an incoming req see
system.mem_ctrls1.rdQLenPdf::21                     0                       # What read queue length does an incoming req see
system.mem_ctrls1.rdQLenPdf::22                     0                       # What read queue length does an incoming req see
system.mem_ctrls1.rdQLenPdf::23                     0                       # What read queue length does an incoming req see
system.mem_ctrls1.rdQLenPdf::24                     0                       # What read queue length does an incoming req see
system.mem_ctrls1.rdQLenPdf::25                     0                       # What read queue length does an incoming req see
system.mem_ctrls1.rdQLenPdf::26                     0                       # What read queue length does an incoming req see
system.mem_ctrls1.rdQLenPdf::27                     0                       # What read queue length does an incoming req see
system.mem_ctrls1.rdQLenPdf::28                     0                       # What read queue length does an incoming req see
system.mem_ctrls1.rdQLenPdf::29                     0                       # What read queue length does an incoming req see
system.mem_ctrls1.rdQLenPdf::30                     0                       # What read queue length does an incoming req see
system.mem_ctrls1.rdQLenPdf::31                     0                       # What read queue length does an incoming req see
system.mem_ctrls1.wrQLenPdf::0                      2                       # What write queue length does an incoming req see
system.mem_ctrls1.wrQLenPdf::1                      2                       # What write queue length does an incoming req see
system.mem_ctrls1.wrQLenPdf::2                      2                       # What write queue length does an incoming req see
system.mem_ctrls1.wrQLenPdf::3                      2                       # What write queue length does an incoming req see
system.mem_ctrls1.wrQLenPdf::4                      2                       # What write queue length does an incoming req see
system.mem_ctrls1.wrQLenPdf::5                      2                       # What write queue length does an incoming req see
system.mem_ctrls1.wrQLenPdf::6                      2                       # What write queue length does an incoming req see
system.mem_ctrls1.wrQLenPdf::7                      2                       # What write queue length does an incoming req see
system.mem_ctrls1.wrQLenPdf::8                      2                       # What write queue length does an incoming req see
system.mem_ctrls1.wrQLenPdf::9                      2                       # What write queue length does an incoming req see
system.mem_ctrls1.wrQLenPdf::10                     2                       # What write queue length does an incoming req see
system.mem_ctrls1.wrQLenPdf::11                     2                       # What write queue length does an incoming req see
system.mem_ctrls1.wrQLenPdf::12                     2                       # What write queue length does an incoming req see
system.mem_ctrls1.wrQLenPdf::13                     2                       # What write queue length does an incoming req see
system.mem_ctrls1.wrQLenPdf::14                     2                       # What write queue length does an incoming req see
system.mem_ctrls1.wrQLenPdf::15                110409                       # What write queue length does an incoming req see
system.mem_ctrls1.wrQLenPdf::16                114813                       # What write queue length does an incoming req see
system.mem_ctrls1.wrQLenPdf::17                140344                       # What write queue length does an incoming req see
system.mem_ctrls1.wrQLenPdf::18                142765                       # What write queue length does an incoming req see
system.mem_ctrls1.wrQLenPdf::19                143032                       # What write queue length does an incoming req see
system.mem_ctrls1.wrQLenPdf::20                143075                       # What write queue length does an incoming req see
system.mem_ctrls1.wrQLenPdf::21                143228                       # What write queue length does an incoming req see
system.mem_ctrls1.wrQLenPdf::22                143871                       # What write queue length does an incoming req see
system.mem_ctrls1.wrQLenPdf::23                144374                       # What write queue length does an incoming req see
system.mem_ctrls1.wrQLenPdf::24                143480                       # What write queue length does an incoming req see
system.mem_ctrls1.wrQLenPdf::25                143184                       # What write queue length does an incoming req see
system.mem_ctrls1.wrQLenPdf::26                143045                       # What write queue length does an incoming req see
system.mem_ctrls1.wrQLenPdf::27                143007                       # What write queue length does an incoming req see
system.mem_ctrls1.wrQLenPdf::28                143036                       # What write queue length does an incoming req see
system.mem_ctrls1.wrQLenPdf::29                143069                       # What write queue length does an incoming req see
system.mem_ctrls1.wrQLenPdf::30                143603                       # What write queue length does an incoming req see
system.mem_ctrls1.wrQLenPdf::31                142533                       # What write queue length does an incoming req see
system.mem_ctrls1.wrQLenPdf::32                142479                       # What write queue length does an incoming req see
system.mem_ctrls1.wrQLenPdf::33                   183                       # What write queue length does an incoming req see
system.mem_ctrls1.wrQLenPdf::34                    50                       # What write queue length does an incoming req see
system.mem_ctrls1.wrQLenPdf::35                    14                       # What write queue length does an incoming req see
system.mem_ctrls1.wrQLenPdf::36                     2                       # What write queue length does an incoming req see
system.mem_ctrls1.wrQLenPdf::37                     0                       # What write queue length does an incoming req see
system.mem_ctrls1.wrQLenPdf::38                     0                       # What write queue length does an incoming req see
system.mem_ctrls1.wrQLenPdf::39                     0                       # What write queue length does an incoming req see
system.mem_ctrls1.wrQLenPdf::40                     0                       # What write queue length does an incoming req see
system.mem_ctrls1.wrQLenPdf::41                     0                       # What write queue length does an incoming req see
system.mem_ctrls1.wrQLenPdf::42                     0                       # What write queue length does an incoming req see
system.mem_ctrls1.wrQLenPdf::43                     0                       # What write queue length does an incoming req see
system.mem_ctrls1.wrQLenPdf::44                     0                       # What write queue length does an incoming req see
system.mem_ctrls1.wrQLenPdf::45                     0                       # What write queue length does an incoming req see
system.mem_ctrls1.wrQLenPdf::46                     0                       # What write queue length does an incoming req see
system.mem_ctrls1.wrQLenPdf::47                     0                       # What write queue length does an incoming req see
system.mem_ctrls1.wrQLenPdf::48                     0                       # What write queue length does an incoming req see
system.mem_ctrls1.wrQLenPdf::49                     0                       # What write queue length does an incoming req see
system.mem_ctrls1.wrQLenPdf::50                     0                       # What write queue length does an incoming req see
system.mem_ctrls1.wrQLenPdf::51                     0                       # What write queue length does an incoming req see
system.mem_ctrls1.wrQLenPdf::52                     0                       # What write queue length does an incoming req see
system.mem_ctrls1.wrQLenPdf::53                     0                       # What write queue length does an incoming req see
system.mem_ctrls1.wrQLenPdf::54                     0                       # What write queue length does an incoming req see
system.mem_ctrls1.wrQLenPdf::55                     0                       # What write queue length does an incoming req see
system.mem_ctrls1.wrQLenPdf::56                     0                       # What write queue length does an incoming req see
system.mem_ctrls1.wrQLenPdf::57                     0                       # What write queue length does an incoming req see
system.mem_ctrls1.wrQLenPdf::58                     0                       # What write queue length does an incoming req see
system.mem_ctrls1.wrQLenPdf::59                     0                       # What write queue length does an incoming req see
system.mem_ctrls1.wrQLenPdf::60                     0                       # What write queue length does an incoming req see
system.mem_ctrls1.wrQLenPdf::61                     0                       # What write queue length does an incoming req see
system.mem_ctrls1.wrQLenPdf::62                     0                       # What write queue length does an incoming req see
system.mem_ctrls1.wrQLenPdf::63                     0                       # What write queue length does an incoming req see
system.mem_ctrls1.bytesPerActivate::samples      4648157                       # Bytes accessed per row activation
system.mem_ctrls1.bytesPerActivate::mean   140.613756                       # Bytes accessed per row activation
system.mem_ctrls1.bytesPerActivate::gmean    99.825602                       # Bytes accessed per row activation
system.mem_ctrls1.bytesPerActivate::stdev   167.790157                       # Bytes accessed per row activation
system.mem_ctrls1.bytesPerActivate::0-127      2972440     63.95%     63.95% # Bytes accessed per row activation
system.mem_ctrls1.bytesPerActivate::128-255      1025411     22.06%     86.01% # Bytes accessed per row activation
system.mem_ctrls1.bytesPerActivate::256-383       264234      5.68%     91.69% # Bytes accessed per row activation
system.mem_ctrls1.bytesPerActivate::384-511       121019      2.60%     94.30% # Bytes accessed per row activation
system.mem_ctrls1.bytesPerActivate::512-639        94968      2.04%     96.34% # Bytes accessed per row activation
system.mem_ctrls1.bytesPerActivate::640-767        62654      1.35%     97.69% # Bytes accessed per row activation
system.mem_ctrls1.bytesPerActivate::768-895        39417      0.85%     98.54% # Bytes accessed per row activation
system.mem_ctrls1.bytesPerActivate::896-1023        25817      0.56%     99.09% # Bytes accessed per row activation
system.mem_ctrls1.bytesPerActivate::1024-1151        42197      0.91%    100.00% # Bytes accessed per row activation
system.mem_ctrls1.bytesPerActivate::total      4648157                       # Bytes accessed per row activation
system.mem_ctrls1.rdPerTurnAround::samples       142431                       # Reads before turning the bus around for writes
system.mem_ctrls1.rdPerTurnAround::mean     54.051141                       # Reads before turning the bus around for writes
system.mem_ctrls1.rdPerTurnAround::stdev   135.813793                       # Reads before turning the bus around for writes
system.mem_ctrls1.rdPerTurnAround::0-1023       142098     99.77%     99.77% # Reads before turning the bus around for writes
system.mem_ctrls1.rdPerTurnAround::1024-2047          285      0.20%     99.97% # Reads before turning the bus around for writes
system.mem_ctrls1.rdPerTurnAround::2048-3071           33      0.02%     99.99% # Reads before turning the bus around for writes
system.mem_ctrls1.rdPerTurnAround::3072-4095           10      0.01%    100.00% # Reads before turning the bus around for writes
system.mem_ctrls1.rdPerTurnAround::4096-5119            3      0.00%    100.00% # Reads before turning the bus around for writes
system.mem_ctrls1.rdPerTurnAround::5120-6143            1      0.00%    100.00% # Reads before turning the bus around for writes
system.mem_ctrls1.rdPerTurnAround::31744-32767            1      0.00%    100.00% # Reads before turning the bus around for writes
system.mem_ctrls1.rdPerTurnAround::total       142431                       # Reads before turning the bus around for writes
system.mem_ctrls1.wrPerTurnAround::samples       142431                       # Writes before turning the bus around for reads
system.mem_ctrls1.wrPerTurnAround::mean     17.647907                       # Writes before turning the bus around for reads
system.mem_ctrls1.wrPerTurnAround::gmean    17.625528                       # Writes before turning the bus around for reads
system.mem_ctrls1.wrPerTurnAround::stdev     0.874205                       # Writes before turning the bus around for reads
system.mem_ctrls1.wrPerTurnAround::16           27801     19.52%     19.52% # Writes before turning the bus around for reads
system.mem_ctrls1.wrPerTurnAround::17            3670      2.58%     22.10% # Writes before turning the bus around for reads
system.mem_ctrls1.wrPerTurnAround::18          102845     72.21%     94.30% # Writes before turning the bus around for reads
system.mem_ctrls1.wrPerTurnAround::19            7278      5.11%     99.41% # Writes before turning the bus around for reads
system.mem_ctrls1.wrPerTurnAround::20             714      0.50%     99.91% # Writes before turning the bus around for reads
system.mem_ctrls1.wrPerTurnAround::21              94      0.07%     99.98% # Writes before turning the bus around for reads
system.mem_ctrls1.wrPerTurnAround::22              16      0.01%     99.99% # Writes before turning the bus around for reads
system.mem_ctrls1.wrPerTurnAround::23               9      0.01%    100.00% # Writes before turning the bus around for reads
system.mem_ctrls1.wrPerTurnAround::24               3      0.00%    100.00% # Writes before turning the bus around for reads
system.mem_ctrls1.wrPerTurnAround::26               1      0.00%    100.00% # Writes before turning the bus around for reads
system.mem_ctrls1.wrPerTurnAround::total       142431                       # Writes before turning the bus around for reads
system.mem_ctrls1.totQLat                152613479055                       # Total ticks spent queuing
system.mem_ctrls1.totMemAccLat           296966241555                       # Total ticks spent from burst creation until serviced by the DRAM
system.mem_ctrls1.totBusLat               38494070000                       # Total ticks spent in databus transfers
system.mem_ctrls1.avgQLat                    19822.99                       # Average queueing delay per DRAM burst
system.mem_ctrls1.avgBusLat                   5000.00                       # Average bus latency per DRAM burst
system.mem_ctrls1.avgMemAccLat               38572.99                       # Average memory access latency per DRAM burst
system.mem_ctrls1.avgRdBW                      130.92                       # Average DRAM read bandwidth in MiByte/s
system.mem_ctrls1.avgWrBW                       42.74                       # Average achieved write bandwidth in MiByte/s
system.mem_ctrls1.avgRdBWSys                   131.01                       # Average system read bandwidth in MiByte/s
system.mem_ctrls1.avgWrBWSys                    42.75                       # Average system write bandwidth in MiByte/s
system.mem_ctrls1.peakBW                     12800.00                       # Theoretical peak bandwidth in MiByte/s
system.mem_ctrls1.busUtil                        1.36                       # Data bus utilization in percentage
system.mem_ctrls1.busUtilRead                    1.02                       # Data bus utilization in percentage for reads
system.mem_ctrls1.busUtilWrite                   0.33                       # Data bus utilization in percentage for writes
system.mem_ctrls1.avgRdQLen                      1.02                       # Average read queue length when enqueuing
system.mem_ctrls1.avgWrQLen                     24.57                       # Average write queue length when enqueuing
system.mem_ctrls1.readRowHits                 4898070                       # Number of row buffer hits during reads
system.mem_ctrls1.writeRowHits                 666193                       # Number of row buffer hits during writes
system.mem_ctrls1.readRowHitRate                63.62                       # Row buffer hit rate for reads
system.mem_ctrls1.writeRowHitRate               26.50                       # Row buffer hit rate for writes
system.mem_ctrls1.avgGap                    368339.56                       # Average gap between requests
system.mem_ctrls1.pageHitRate                   54.49                       # Row buffer hit rate, read and write combined
system.mem_ctrls1_0.actEnergy             16652486340                       # Energy for activate commands per rank (pJ)
system.mem_ctrls1_0.preEnergy              8851002600                       # Energy for precharge commands per rank (pJ)
system.mem_ctrls1_0.readEnergy            27727147560                       # Energy for read commands per rank (pJ)
system.mem_ctrls1_0.writeEnergy            6602684040                       # Energy for write commands per rank (pJ)
system.mem_ctrls1_0.refreshEnergy        286272267840.000061                       # Energy for refresh commands per rank (pJ)
system.mem_ctrls1_0.actBackEnergy        173791516290                       # Energy for active background per rank (pJ)
system.mem_ctrls1_0.preBackEnergy          8187864480                       # Energy for precharge background per rank (pJ)
system.mem_ctrls1_0.actPowerDownEnergy   1178062294350                       # Energy for active power-down per rank (pJ)
system.mem_ctrls1_0.prePowerDownEnergy   189074138400                       # Energy for precharge power-down per rank (pJ)
system.mem_ctrls1_0.selfRefreshEnergy     79773439785                       # Energy for self refresh per rank (pJ)
system.mem_ctrls1_0.totalEnergy          1975114201395                       # Total energy per rank (pJ)
system.mem_ctrls1_0.averagePower           524.804716                       # Core power per rank (mW)
system.mem_ctrls1_0.totalIdleTime        3360812720752                       # Total Idle time Per DRAM Rank
system.mem_ctrls1_0.memoryStateTime::IDLE   8077826411                       # Time in different power states
system.mem_ctrls1_0.memoryStateTime::REF 121231656000                       # Time in different power states
system.mem_ctrls1_0.memoryStateTime::SREF 284961667947                       # Time in different power states
system.mem_ctrls1_0.memoryStateTime::PRE_PDN 492380909025                       # Time in different power states
system.mem_ctrls1_0.memoryStateTime::ACT 273399432118                       # Time in different power states
system.mem_ctrls1_0.memoryStateTime::ACT_PDN 2583470659059                       # Time in different power states
system.mem_ctrls1_1.actEnergy             16535376060                       # Energy for activate commands per rank (pJ)
system.mem_ctrls1_1.preEnergy              8788753215                       # Energy for precharge commands per rank (pJ)
system.mem_ctrls1_1.readEnergy            27242384400                       # Energy for read commands per rank (pJ)
system.mem_ctrls1_1.writeEnergy            6518354940                       # Energy for write commands per rank (pJ)
system.mem_ctrls1_1.refreshEnergy        285754740960.000061                       # Energy for refresh commands per rank (pJ)
system.mem_ctrls1_1.actBackEnergy        176497118760                       # Energy for active background per rank (pJ)
system.mem_ctrls1_1.preBackEnergy          8294014080                       # Energy for precharge background per rank (pJ)
system.mem_ctrls1_1.actPowerDownEnergy   1166199047940                       # Energy for active power-down per rank (pJ)
system.mem_ctrls1_1.prePowerDownEnergy   190101327360                       # Energy for precharge power-down per rank (pJ)
system.mem_ctrls1_1.selfRefreshEnergy     84689252700                       # Energy for self refresh per rank (pJ)
system.mem_ctrls1_1.totalEnergy          1970732112375                       # Total energy per rank (pJ)
system.mem_ctrls1_1.averagePower           523.640359                       # Core power per rank (mW)
system.mem_ctrls1_1.totalIdleTime        3354623997030                       # Total Idle time Per DRAM Rank
system.mem_ctrls1_1.memoryStateTime::IDLE   8465284797                       # Time in different power states
system.mem_ctrls1_1.memoryStateTime::REF 121020590000                       # Time in different power states
system.mem_ctrls1_1.memoryStateTime::SREF 302109918229                       # Time in different power states
system.mem_ctrls1_1.memoryStateTime::PRE_PDN 495059484760                       # Time in different power states
system.mem_ctrls1_1.memoryStateTime::ACT 279412155631                       # Time in different power states
system.mem_ctrls1_1.memoryStateTime::ACT_PDN 2557454717143                       # Time in different power states
system.pwrStateResidencyTicks::UNDEFINED 73793494731906                       # Cumulative time (in ticks) in various power states
system.cpu.branchPred.lookups                       1                       # Number of BP lookups
system.cpu.branchPred.condPredicted                 1                       # Number of conditional branches predicted
system.cpu.branchPred.condIncorrect                 0                       # Number of conditional branches incorrect
system.cpu.branchPred.BTBLookups                    0                       # Number of BTB lookups
system.cpu.branchPred.BTBHits                       0                       # Number of BTB hits
system.cpu.branchPred.BTBCorrect                    0                       # Number of correct BTB predictions (this stat may not work properly.
system.cpu.branchPred.BTBHitPct                   nan                       # BTB Hit Percentage
system.cpu.branchPred.usedRAS                       0                       # Number of times the RAS was used to get a target.
system.cpu.branchPred.RASInCorrect                  0                       # Number of incorrect RAS predictions.
system.cpu.branchPred.indirectLookups               0                       # Number of indirect predictor lookups.
system.cpu.branchPred.indirectHits                  0                       # Number of indirect target hits.
system.cpu.branchPred.indirectMisses                0                       # Number of indirect misses.
system.cpu.branchPredindirectMispredicted            0                       # Number of mispredicted indirect branches.
system.cpu_voltage_domain.voltage                   1                       # Voltage in Volts
system.cpu_clk_domain.clock                       333                       # Clock period in ticks
system.cpu.dtb.fetch_hits                           0                       # ITB hits
system.cpu.dtb.fetch_misses                         0                       # ITB misses
system.cpu.dtb.fetch_acv                            0                       # ITB acv
system.cpu.dtb.fetch_accesses                       0                       # ITB accesses
system.cpu.dtb.read_hits                            2                       # DTB read hits
system.cpu.dtb.read_misses                          0                       # DTB read misses
system.cpu.dtb.read_acv                             0                       # DTB read access violations
system.cpu.dtb.read_accesses                        2                       # DTB read accesses
system.cpu.dtb.write_hits                           0                       # DTB write hits
system.cpu.dtb.write_misses                         0                       # DTB write misses
system.cpu.dtb.write_acv                            0                       # DTB write access violations
system.cpu.dtb.write_accesses                       0                       # DTB write accesses
system.cpu.dtb.data_hits                            2                       # DTB hits
system.cpu.dtb.data_misses                          0                       # DTB misses
system.cpu.dtb.data_acv                             0                       # DTB access violations
system.cpu.dtb.data_accesses                        2                       # DTB accesses
system.cpu.itb.fetch_hits                           3                       # ITB hits
system.cpu.itb.fetch_misses                         0                       # ITB misses
system.cpu.itb.fetch_acv                            0                       # ITB acv
system.cpu.itb.fetch_accesses                       3                       # ITB accesses
system.cpu.itb.read_hits                            0                       # DTB read hits
system.cpu.itb.read_misses                          0                       # DTB read misses
system.cpu.itb.read_acv                             0                       # DTB read access violations
system.cpu.itb.read_accesses                        0                       # DTB read accesses
system.cpu.itb.write_hits                           0                       # DTB write hits
system.cpu.itb.write_misses                         0                       # DTB write misses
system.cpu.itb.write_acv                            0                       # DTB write access violations
system.cpu.itb.write_accesses                       0                       # DTB write accesses
system.cpu.itb.data_hits                            0                       # DTB hits
system.cpu.itb.data_misses                          0                       # DTB misses
system.cpu.itb.data_acv                             0                       # DTB access violations
system.cpu.itb.data_accesses                        0                       # DTB accesses
system.cpu.workload.num_syscalls                    5                       # Number of system calls
system.cpu.pwrStateResidencyTicks::ON    3763522150560                       # Cumulative time (in ticks) in various power states
system.cpu.numCycles                              492                       # number of cpu cycles simulated
system.cpu.numWorkItemsStarted                      0                       # number of work items this cpu started
system.cpu.numWorkItemsCompleted                    0                       # number of work items this cpu completed
system.cpu.fetch.icacheStallCycles                 18                       # Number of cycles fetch is stalled on an Icache miss
system.cpu.fetch.Insts                             10                       # Number of instructions fetch has processed
system.cpu.fetch.Branches                           1                       # Number of branches that fetch encountered
system.cpu.fetch.Cycles                             2                       # Number of cycles fetch has run and was not squashing or blocked
system.cpu.fetch.SquashCycles                       3                       # Number of cycles fetch has spent squashing
system.cpu.fetch.PendingDrainCycles                 3                       # Number of cycles fetch has spent waiting on pipes to drain
system.cpu.fetch.CacheLines                         3                       # Number of cache lines fetched
system.cpu.fetch.IcacheSquashes                     2                       # Number of outstanding Icache misses that were squashed
[...]
system.switch_cpus_1.iq.int_inst_queue_wakeup_accesses    196715533                       # Number of integer instruction queue wakeup accesses
system.switch_cpus_1.iq.fp_inst_queue_reads    132724060                       # Number of floating instruction queue reads
system.switch_cpus_1.iq.fp_inst_queue_writes     84798763                       # Number of floating instruction queue writes
system.switch_cpus_1.iq.fp_inst_queue_wakeup_accesses     59413838                       # Number of floating instruction queue wakeup accesses
system.switch_cpus_1.iq.int_alu_accesses    212788971                       # Number of integer alu accesses
system.switch_cpus_1.iq.fp_alu_accesses      67888839                       # Number of floating point alu accesses
system.switch_cpus_1.iew.lsq.thread0.forwLoads      2275510                       # Number of loads that had data forwarded from stores
system.switch_cpus_1.iew.lsq.thread0.invAddrLoads            0                       # Number of loads ignored due to an invalid address
system.switch_cpus_1.iew.lsq.thread0.squashedLoads     21560294                       # Number of loads squashed
system.switch_cpus_1.iew.lsq.thread0.ignoredResponses        14675                       # Number of memory responses ignored because the instruction is squashed
system.switch_cpus_1.iew.lsq.thread0.memOrderViolation         8581                       # Number of memory ordering violations
system.switch_cpus_1.iew.lsq.thread0.squashedStores      7155858                       # Number of stores squashed
system.switch_cpus_1.iew.lsq.thread0.invAddrSwpfs            0                       # Number of software prefetches ignored due to an invalid address
system.switch_cpus_1.iew.lsq.thread0.blockedLoads            0                       # Number of blocked loads due to partial load-store forwarding
system.switch_cpus_1.iew.lsq.thread0.rescheduledLoads         5986                       # Number of loads that were rescheduled
system.switch_cpus_1.iew.lsq.thread0.cacheBlocked     12708928                       # Number of times an access to memory failed due to the cache being blocked
system.switch_cpus_1.iew.iewIdleCycles              0                       # Number of cycles IEW is idle
system.switch_cpus_1.iew.iewSquashCycles      1488641                       # Number of cycles IEW is squashing
system.switch_cpus_1.iew.iewBlockCycles     203616810                       # Number of cycles IEW is blocking
system.switch_cpus_1.iew.iewUnblockCycles     83333156                       # Number of cycles IEW is unblocking
system.switch_cpus_1.iew.iewDispatchedInsts    292442690                       # Number of instructions dispatched to IQ
system.switch_cpus_1.iew.iewDispSquashedInsts       152922                       # Number of squashed instructions skipped by dispatch
system.switch_cpus_1.iew.iewDispLoadInsts     61232013                       # Number of dispatched load instructions
system.switch_cpus_1.iew.iewDispStoreInsts     19146897                       # Number of dispatched store instructions
system.switch_cpus_1.iew.iewDispNonSpecInsts          202                       # Number of dispatched non-speculative instructions
system.switch_cpus_1.iew.iewIQFullEvents      1029807                       # Number of times the IQ has become full, causing a stall
system.switch_cpus_1.iew.iewLSQFullEvents     81723273                       # Number of times the LSQ has become full, causing a stall
system.switch_cpus_1.iew.memOrderViolationEvents         8581                       # Number of memory order violations
system.switch_cpus_1.iew.predictedTakenIncorrect       827642                       # Number of branches that were predicted taken incorrectly
system.switch_cpus_1.iew.predictedNotTakenIncorrect       565432                       # Number of branches that were predicted not taken incorrectly
system.switch_cpus_1.iew.branchMispredicts      1393074                       # Number of branch mispredicts detected at execute
system.switch_cpus_1.iew.iewExecutedInsts    272109954                       # Number of executed instructions
system.switch_cpus_1.iew.iewExecLoadInsts     68205328                       # Number of load instructions executed
system.switch_cpus_1.iew.iewExecSquashedInsts      1757430                       # Number of squashed instructions skipped in execute
system.switch_cpus_1.iew.exec_swp                   0                       # number of swp insts executed
system.switch_cpus_1.iew.exec_nop             1879819                       # number of nop insts executed
system.switch_cpus_1.iew.exec_refs           83915010                       # number of memory reference insts executed
system.switch_cpus_1.iew.exec_branches       34734365                       # Number of branches executed
system.switch_cpus_1.iew.exec_stores         15709682                       # Number of stores executed
system.switch_cpus_1.iew.exec_rate           0.349864                       # Inst execution rate
system.switch_cpus_1.iew.wb_sent            258103737                       # cumulative count of insts sent to commit
system.switch_cpus_1.iew.wb_count           256129371                       # cumulative count of insts written-back
system.switch_cpus_1.iew.wb_producers       153878700                       # num instructions producing a value
system.switch_cpus_1.iew.wb_consumers       189856581                       # num instructions consuming a value
system.switch_cpus_1.iew.wb_rate             0.329317                       # insts written-back per cycle
system.switch_cpus_1.iew.wb_fanout           0.810500                       # average fanout of values written-back
system.switch_cpus_1.commit.commitSquashedInsts     87146540                       # The number of squashed insts skipped by commit
system.switch_cpus_1.commit.commitNonSpecStalls          204                       # The number of times commit has been forced to stall to communicate backwards
system.switch_cpus_1.commit.branchMispredicts      1115766                       # The number of times a branch was mispredicted
system.switch_cpus_1.commit.committed_per_cycle::samples    765261430                       # Number of insts commited each cycle
system.switch_cpus_1.commit.committed_per_cycle::mean     0.262941                       # Number of insts commited each cycle
system.switch_cpus_1.commit.committed_per_cycle::stdev     1.330174                       # Number of insts commited each cycle
system.switch_cpus_1.commit.committed_per_cycle::underflows            0      0.00%      0.00% # Number of insts commited each cycle
system.switch_cpus_1.commit.committed_per_cycle::0    726294270     94.91%     94.91% # Number of insts commited each cycle
system.switch_cpus_1.commit.committed_per_cycle::1      9219677      1.20%     96.11% # Number of insts commited each cycle
system.switch_cpus_1.commit.committed_per_cycle::2      3970164      0.52%     96.63% # Number of insts commited each cycle
system.switch_cpus_1.commit.committed_per_cycle::3      1836906      0.24%     96.87% # Number of insts commited each cycle
system.switch_cpus_1.commit.committed_per_cycle::4      1264443      0.17%     97.04% # Number of insts commited each cycle
system.switch_cpus_1.commit.committed_per_cycle::5      1851468      0.24%     97.28% # Number of insts commited each cycle
system.switch_cpus_1.commit.committed_per_cycle::6       734137      0.10%     97.37% # Number of insts commited each cycle
system.switch_cpus_1.commit.committed_per_cycle::7       895226      0.12%     97.49% # Number of insts commited each cycle
system.switch_cpus_1.commit.committed_per_cycle::8     19195139      2.51%    100.00% # Number of insts commited each cycle
system.switch_cpus_1.commit.committed_per_cycle::overflows            0      0.00%    100.00% # Number of insts commited each cycle
system.switch_cpus_1.commit.committed_per_cycle::min_value            0                       # Number of insts commited each cycle
system.switch_cpus_1.commit.committed_per_cycle::max_value            8                       # Number of insts commited each cycle
system.switch_cpus_1.commit.committed_per_cycle::total    765261430                       # Number of insts commited each cycle
system.switch_cpus_1.commit.committedInsts    201218351                       # Number of instructions committed
system.switch_cpus_1.commit.committedOps    201218351                       # Number of ops (including micro ops) committed
system.switch_cpus_1.commit.swp_count               0                       # Number of s/w prefetches committed
system.switch_cpus_1.commit.refs             51662751                       # Number of memory references committed
system.switch_cpus_1.commit.loads            39671715                       # Number of loads committed
system.switch_cpus_1.commit.membars               102                       # Number of memory barriers committed
system.switch_cpus_1.commit.branches         28384894                       # Number of branches committed
system.switch_cpus_1.commit.fp_insts         51627815                       # Number of committed floating point instructions.
system.switch_cpus_1.commit.int_insts       168624395                       # Number of committed integer instructions.
system.switch_cpus_1.commit.function_calls       460018                       # Number of function calls committed.
system.switch_cpus_1.commit.op_class_0::No_OpClass      1218344      0.61%      0.61% # Class of committed instruction
system.switch_cpus_1.commit.op_class_0::IntAlu    117264314     58.28%     58.88% # Class of committed instruction
system.switch_cpus_1.commit.op_class_0::IntMult       166526      0.08%     58.97% # Class of committed instruction
system.switch_cpus_1.commit.op_class_0::IntDiv            0      0.00%     58.97% # Class of committed instruction
system.switch_cpus_1.commit.op_class_0::FloatAdd     18908760      9.40%     68.36% # Class of committed instruction
system.switch_cpus_1.commit.op_class_0::FloatCmp     10580725      5.26%     73.62% # Class of committed instruction
system.switch_cpus_1.commit.op_class_0::FloatCvt         1376      0.00%     73.62% # Class of committed instruction
system.switch_cpus_1.commit.op_class_0::FloatMult       880508      0.44%     74.06% # Class of committed instruction
system.switch_cpus_1.commit.op_class_0::FloatMultAcc            0      0.00%     74.06% # Class of committed instruction
system.switch_cpus_1.commit.op_class_0::FloatDiv       534945      0.27%     74.32% # Class of committed instruction
system.switch_cpus_1.commit.op_class_0::FloatMisc            0      0.00%     74.32% # Class of committed instruction
system.switch_cpus_1.commit.op_class_0::FloatSqrt            0      0.00%     74.32% # Class of committed instruction
system.switch_cpus_1.commit.op_class_0::SimdAdd            0      0.00%     74.32% # Class of committed instruction
system.switch_cpus_1.commit.op_class_0::SimdAddAcc            0      0.00%     74.32% # Class of committed instruction
system.switch_cpus_1.commit.op_class_0::SimdAlu            0      0.00%     74.32% # Class of committed instruction
system.switch_cpus_1.commit.op_class_0::SimdCmp            0      0.00%     74.32% # Class of committed instruction
system.switch_cpus_1.commit.op_class_0::SimdCvt            0      0.00%     74.32% # Class of committed instruction
system.switch_cpus_1.commit.op_class_0::SimdMisc            0      0.00%     74.32% # Class of committed instruction
system.switch_cpus_1.commit.op_class_0::SimdMult            0      0.00%     74.32% # Class of committed instruction
system.switch_cpus_1.commit.op_class_0::SimdMultAcc            0      0.00%     74.32% # Class of committed instruction
system.switch_cpus_1.commit.op_class_0::SimdShift            0      0.00%     74.32% # Class of committed instruction
system.switch_cpus_1.commit.op_class_0::SimdShiftAcc            0      0.00%     74.32% # Class of committed instruction
system.switch_cpus_1.commit.op_class_0::SimdSqrt            0      0.00%     74.32% # Class of committed instruction
system.switch_cpus_1.commit.op_class_0::SimdFloatAdd            0      0.00%     74.32% # Class of committed instruction
system.switch_cpus_1.commit.op_class_0::SimdFloatAlu            0      0.00%     74.32% # Class of committed instruction
system.switch_cpus_1.commit.op_class_0::SimdFloatCmp            0      0.00%     74.32% # Class of committed instruction
system.switch_cpus_1.commit.op_class_0::SimdFloatCvt            0      0.00%     74.32% # Class of committed instruction
system.switch_cpus_1.commit.op_class_0::SimdFloatDiv            0      0.00%     74.32% # Class of committed instruction
system.switch_cpus_1.commit.op_class_0::SimdFloatMisc            0      0.00%     74.32% # Class of committed instruction
system.switch_cpus_1.commit.op_class_0::SimdFloatMult            0      0.00%     74.32% # Class of committed instruction
system.switch_cpus_1.commit.op_class_0::SimdFloatMultAcc            0      0.00%     74.32% # Class of committed instruction
system.switch_cpus_1.commit.op_class_0::SimdFloatSqrt            0      0.00%     74.32% # Class of committed instruction
system.switch_cpus_1.commit.op_class_0::MemRead     20146503     10.01%     84.34% # Class of committed instruction
system.switch_cpus_1.commit.op_class_0::MemWrite     10794849      5.36%     89.70% # Class of committed instruction
system.switch_cpus_1.commit.op_class_0::FloatMemRead     19525314      9.70%     99.41% # Class of committed instruction
system.switch_cpus_1.commit.op_class_0::FloatMemWrite      1196187      0.59%    100.00% # Class of committed instruction
system.switch_cpus_1.commit.op_class_0::IprAccess            0      0.00%    100.00% # Class of committed instruction
system.switch_cpus_1.commit.op_class_0::InstPrefetch            0      0.00%    100.00% # Class of committed instruction
system.switch_cpus_1.commit.op_class_0::total    201218351                       # Class of committed instruction
system.switch_cpus_1.commit.bw_lim_events     19195139                       # number cycles where commit BW limit reached
system.switch_cpus_1.rob.rob_reads         1029666123                       # The number of ROB reads
system.switch_cpus_1.rob.rob_writes         588794402                       # The number of ROB writes
system.switch_cpus_1.timesIdled                  2341                       # Number of times that the entire CPU went into an idle state and unscheduled itself
system.switch_cpus_1.idleCycles                455672                       # Total number of cycles that the CPU has spent unscheduled due to idling
system.switch_cpus_1.committedInsts         200000007                       # Number of Instructions Simulated
system.switch_cpus_1.committedOps           200000007                       # Number of Ops (including micro ops) Simulated
system.switch_cpus_1.cpi                     3.888801                       # CPI: Cycles Per Instruction
system.switch_cpus_1.cpi_total               3.888801                       # CPI: Total CPI of All Threads
system.switch_cpus_1.ipc                     0.257149                       # IPC: Instructions Per Cycle
system.switch_cpus_1.ipc_total               0.257149                       # IPC: Total IPC of All Threads
system.switch_cpus_1.int_regfile_reads      354470148                       # number of integer regfile reads
system.switch_cpus_1.int_regfile_writes     160547320                       # number of integer regfile writes
system.switch_cpus_1.fp_regfile_reads        59585327                       # number of floating regfile reads
system.switch_cpus_1.fp_regfile_writes       46574370                       # number of floating regfile writes
system.switch_cpus_1.misc_regfile_reads           243                       # number of misc regfile reads
system.switch_cpus_1.misc_regfile_writes          204                       # number of misc regfile writes
system.tol3bus.snoop_filter.tot_requests     51972837                       # Total number of requests made to the snoop filter.
system.tol3bus.snoop_filter.hit_single_requests     25984183                       # Number of requests hitting in the snoop filter with a single holder of the requested data.
system.tol3bus.snoop_filter.hit_multi_requests            0                       # Number of requests hitting in the snoop filter with multiple (>1) holders of the requested data.
system.tol3bus.snoop_filter.tot_snoops           6460                       # Total number of snoops made to the snoop filter.
system.tol3bus.snoop_filter.hit_single_snoops         6460                       # Number of snoops hitting in the snoop filter with a single holder of the requested data.
system.tol3bus.snoop_filter.hit_multi_snoops            0                       # Number of snoops hitting in the snoop filter with multiple (>1) holders of the requested data.
system.tol3bus.pwrStateResidencyTicks::UNDEFINED 73793494731906                       # Cumulative time (in ticks) in various power states
system.tol3bus.trans_dist::ReadResp          19568899                       # Transaction distribution
system.tol3bus.trans_dist::WritebackDirty     17645205                       # Transaction distribution
system.tol3bus.trans_dist::CleanEvict        23675487                       # Transaction distribution
system.tol3bus.trans_dist::UpgradeReq              26                       # Transaction distribution
system.tol3bus.trans_dist::UpgradeResp             26                       # Transaction distribution
system.tol3bus.trans_dist::ReadExReq          6419755                       # Transaction distribution
system.tol3bus.trans_dist::ReadExResp         6419755                       # Transaction distribution
system.tol3bus.trans_dist::ReadSharedReq     19568899                       # Transaction distribution
system.tol3bus.pkt_count_system.cpu.l2.mem_side::system.l3.cpu_side     77961517                       # Packet count per connected master and slave (bytes)
system.tol3bus.pkt_size_system.cpu.l2.mem_side::system.l3.cpu_side   2470897536                       # Cumulative packet size per connected master and slave (bytes)
system.tol3bus.snoops                        15336535                       # Total snoops (count)
system.tol3bus.snoopTraffic                 321669440                       # Total snoop traffic (bytes)
system.tol3bus.snoop_fanout::samples         41325215                       # Request fanout histogram
system.tol3bus.snoop_fanout::mean            0.000156                       # Request fanout histogram
system.tol3bus.snoop_fanout::stdev           0.012502                       # Request fanout histogram
system.tol3bus.snoop_fanout::underflows             0      0.00%      0.00% # Request fanout histogram
system.tol3bus.snoop_fanout::0               41318755     99.98%     99.98% # Request fanout histogram
system.tol3bus.snoop_fanout::1                   6460      0.02%    100.00% # Request fanout histogram
system.tol3bus.snoop_fanout::overflows              0      0.00%    100.00% # Request fanout histogram
system.tol3bus.snoop_fanout::min_value              0                       # Request fanout histogram
system.tol3bus.snoop_fanout::max_value              1                       # Request fanout histogram
system.tol3bus.snoop_fanout::total           41325215                       # Request fanout histogram
system.tol3bus.reqLayer0.occupancy        21509121681                       # Layer occupancy (ticks)
system.tol3bus.reqLayer0.utilization              0.6                       # Layer utilization (%)
system.tol3bus.respLayer0.occupancy       17308452222                       # Layer occupancy (ticks)
system.tol3bus.respLayer0.utilization             0.5                       # Layer utilization (%)

---------- End Simulation Statistics   ----------
