
---------- Begin Simulation Statistics ----------
sim_seconds                                  1.005662                       # Number of seconds simulated
sim_ticks                                1005662267064                       # Number of ticks simulated
final_tick                               176556946388931                       # Number of ticks from beginning of simulation (restored from checkpoints and never reset)
sim_freq                                 1000000000000                       # Frequency of simulated ticks
host_inst_rate                                 813107                       # Simulator instruction rate (inst/s)
host_op_rate                                   813107                       # Simulator op (including micro ops) rate (op/s)
host_tick_rate                              681425472                       # Simulator tick rate (ticks/s)
host_mem_usage                                2387964                       # Number of bytes of host memory used
host_seconds                                  1475.82                       # Real time elapsed on the host
sim_insts                                  1200000005                       # Number of instructions simulated
sim_ops                                    1200000005                       # Number of ops (including micro ops) simulated
system.voltage_domain.voltage                       1                       # Voltage in Volts
system.clk_domain.clock                          1000                       # Clock period in ticks
system.mem_ctrls0.pwrStateResidencyTicks::UNDEFINED 176556946388931                       # Cumulative time (in ticks) in various power states
system.mem_ctrls0.bytes_read::cpu.inst             64                       # Number of bytes read from this memory
system.mem_ctrls0.bytes_read::cpu.data            192                       # Number of bytes read from this memory
system.mem_ctrls0.bytes_read::switch_cpus.inst        48384                       # Number of bytes read from this memory
system.mem_ctrls0.bytes_read::switch_cpus.data      2399168                       # Number of bytes read from this memory
system.mem_ctrls0.bytes_read::switch_cpus_1.inst        11712                       # Number of bytes read from this memory
system.mem_ctrls0.bytes_read::switch_cpus_1.data       407808                       # Number of bytes read from this memory
system.mem_ctrls0.bytes_read::total           2867328                       # Number of bytes read from this memory
system.mem_ctrls0.bytes_inst_read::cpu.inst           64                       # Number of instructions bytes read from this memory
system.mem_ctrls0.bytes_inst_read::switch_cpus.inst        48384                       # Number of instructions bytes read from this memory
system.mem_ctrls0.bytes_inst_read::switch_cpus_1.inst        11712                       # Number of instructions bytes read from this memory
system.mem_ctrls0.bytes_inst_read::total        60160                       # Number of instructions bytes read from this memory
system.mem_ctrls0.bytes_written::writebacks       361472                       # Number of bytes written to this memory
system.mem_ctrls0.bytes_written::total         361472                       # Number of bytes written to this memory
system.mem_ctrls0.num_reads::cpu.inst               1                       # Number of read requests responded to by this memory
system.mem_ctrls0.num_reads::cpu.data               3                       # Number of read requests responded to by this memory
system.mem_ctrls0.num_reads::switch_cpus.inst          756                       # Number of read requests responded to by this memory
system.mem_ctrls0.num_reads::switch_cpus.data        37487                       # Number of read requests responded to by this memory
system.mem_ctrls0.num_reads::switch_cpus_1.inst          183                       # Number of read requests responded to by this memory
system.mem_ctrls0.num_reads::switch_cpus_1.data         6372                       # Number of read requests responded to by this memory
system.mem_ctrls0.num_reads::total              44802                       # Number of read requests responded to by this memory
system.mem_ctrls0.num_writes::writebacks         5648                       # Number of write requests responded to by this memory
system.mem_ctrls0.num_writes::total              5648                       # Number of write requests responded to by this memory
system.mem_ctrls0.bw_read::cpu.inst                64                       # Total read bandwidth from this memory (bytes/s)
system.mem_ctrls0.bw_read::cpu.data               191                       # Total read bandwidth from this memory (bytes/s)
system.mem_ctrls0.bw_read::switch_cpus.inst        48112                       # Total read bandwidth from this memory (bytes/s)
system.mem_ctrls0.bw_read::switch_cpus.data      2385660                       # Total read bandwidth from this memory (bytes/s)
system.mem_ctrls0.bw_read::switch_cpus_1.inst        11646                       # Total read bandwidth from this memory (bytes/s)
system.mem_ctrls0.bw_read::switch_cpus_1.data       405512                       # Total read bandwidth from this memory (bytes/s)
system.mem_ctrls0.bw_read::total              2851184                       # Total read bandwidth from this memory (bytes/s)
system.mem_ctrls0.bw_inst_read::cpu.inst           64                       # Instruction read bandwidth from this memory (bytes/s)
system.mem_ctrls0.bw_inst_read::switch_cpus.inst        48112                       # Instruction read bandwidth from this memory (bytes/s)
system.mem_ctrls0.bw_inst_read::switch_cpus_1.inst        11646                       # Instruction read bandwidth from this memory (bytes/s)
system.mem_ctrls0.bw_inst_read::total           59821                       # Instruction read bandwidth from this memory (bytes/s)
system.mem_ctrls0.bw_write::writebacks         359437                       # Write bandwidth from this memory (bytes/s)
system.mem_ctrls0.bw_write::total              359437                       # Write bandwidth from this memory (bytes/s)
system.mem_ctrls0.bw_total::writebacks         359437                       # Total bandwidth to/from this memory (bytes/s)
system.mem_ctrls0.bw_total::cpu.inst               64                       # Total bandwidth to/from this memory (bytes/s)
system.mem_ctrls0.bw_total::cpu.data              191                       # Total bandwidth to/from this memory (bytes/s)
system.mem_ctrls0.bw_total::switch_cpus.inst        48112                       # Total bandwidth to/from this memory (bytes/s)
system.mem_ctrls0.bw_total::switch_cpus.data      2385660                       # Total bandwidth to/from this memory (bytes/s)
system.mem_ctrls0.bw_total::switch_cpus_1.inst        11646                       # Total bandwidth to/from this memory (bytes/s)
system.mem_ctrls0.bw_total::switch_cpus_1.data       405512                       # Total bandwidth to/from this memory (bytes/s)
system.mem_ctrls0.bw_total::total             3210621                       # Total bandwidth to/from this memory (bytes/s)
system.mem_ctrls0.readReqs                      44802                       # Number of read requests accepted
system.mem_ctrls0.writeReqs                      5648                       # Number of write requests accepted
system.mem_ctrls0.readBursts                    44802                       # Number of DRAM read bursts, including those serviced by the write queue
system.mem_ctrls0.writeBursts                    5648                       # Number of DRAM write bursts, including those merged in the write queue
system.mem_ctrls0.bytesReadDRAM               2820672                       # Total number of bytes read from DRAM
system.mem_ctrls0.bytesReadWrQ                  46656                       # Total number of bytes read from write queue
system.mem_ctrls0.bytesWritten                 359424                       # Total number of bytes written to DRAM
system.mem_ctrls0.bytesReadSys                2867328                       # Total read bytes from the system interface side
system.mem_ctrls0.bytesWrittenSys              361472                       # Total written bytes from the system interface side
system.mem_ctrls0.servicedByWrQ                   729                       # Number of DRAM read bursts serviced by the write queue
system.mem_ctrls0.mergedWrBursts                    2                       # Number of DRAM write bursts merged with an existing one
system.mem_ctrls0.neitherReadNorWriteReqs            0                       # Number of requests that are neither read nor write
system.mem_ctrls0.perBankRdBursts::0             2909                       # Per bank write bursts
system.mem_ctrls0.perBankRdBursts::1             2340                       # Per bank write bursts
system.mem_ctrls0.perBankRdBursts::2             2457                       # Per bank write bursts
system.mem_ctrls0.perBankRdBursts::3             2635                       # Per bank write bursts
system.mem_ctrls0.perBankRdBursts::4             2457                       # Per bank write bursts
system.mem_ctrls0.perBankRdBursts::5             2616                       # Per bank write bursts
system.mem_ctrls0.perBankRdBursts::6             3060                       # Per bank write bursts
system.mem_ctrls0.perBankRdBursts::7             2793                       # Per bank write bursts
system.mem_ctrls0.perBankRdBursts::8             2838                       # Per bank write bursts
system.mem_ctrls0.perBankRdBursts::9             2772                       # Per bank write bursts
system.mem_ctrls0.perBankRdBursts::10            2840                       # Per bank write bursts
system.mem_ctrls0.perBankRdBursts::11            2663                       # Per bank write bursts
system.mem_ctrls0.perBankRdBursts::12            2856                       # Per bank write bursts
system.mem_ctrls0.perBankRdBursts::13            2731                       # Per bank write bursts
system.mem_ctrls0.perBankRdBursts::14            3371                       # Per bank write bursts
system.mem_ctrls0.perBankRdBursts::15            2735                       # Per bank write bursts
system.mem_ctrls0.perBankWrBursts::0              484                       # Per bank write bursts
system.mem_ctrls0.perBankWrBursts::1              180                       # Per bank write bursts
system.mem_ctrls0.perBankWrBursts::2              249                       # Per bank write bursts
system.mem_ctrls0.perBankWrBursts::3              215                       # Per bank write bursts
system.mem_ctrls0.perBankWrBursts::4              286                       # Per bank write bursts
system.mem_ctrls0.perBankWrBursts::5              244                       # Per bank write bursts
system.mem_ctrls0.perBankWrBursts::6              599                       # Per bank write bursts
system.mem_ctrls0.perBankWrBursts::7              401                       # Per bank write bursts
system.mem_ctrls0.perBankWrBursts::8              419                       # Per bank write bursts
system.mem_ctrls0.perBankWrBursts::9              231                       # Per bank write bursts
system.mem_ctrls0.perBankWrBursts::10             274                       # Per bank write bursts
system.mem_ctrls0.perBankWrBursts::11             271                       # Per bank write bursts
system.mem_ctrls0.perBankWrBursts::12             339                       # Per bank write bursts
system.mem_ctrls0.perBankWrBursts::13             279                       # Per bank write bursts
system.mem_ctrls0.perBankWrBursts::14             804                       # Per bank write bursts
system.mem_ctrls0.perBankWrBursts::15             341                       # Per bank write bursts
system.mem_ctrls0.numRdRetry                        0                       # Number of times read queue was full causing retry
system.mem_ctrls0.numWrRetry                        0                       # Number of times write queue was full causing retry
system.mem_ctrls0.totGap                 1005655006998                       # Total gap between requests
system.mem_ctrls0.readPktSize::0                    0                       # Read request sizes (log2)
system.mem_ctrls0.readPktSize::1                    0                       # Read request sizes (log2)
system.mem_ctrls0.readPktSize::2                    0                       # Read request sizes (log2)
system.mem_ctrls0.readPktSize::3                    0                       # Read request sizes (log2)
system.mem_ctrls0.readPktSize::4                    0                       # Read request sizes (log2)
system.mem_ctrls0.readPktSize::5                    0                       # Read request sizes (log2)
system.mem_ctrls0.readPktSize::6                44802                       # Read request sizes (log2)
system.mem_ctrls0.writePktSize::0                   0                       # Write request sizes (log2)
system.mem_ctrls0.writePktSize::1                   0                       # Write request sizes (log2)
system.mem_ctrls0.writePktSize::2                   0                       # Write request sizes (log2)
system.mem_ctrls0.writePktSize::3                   0                       # Write request sizes (log2)
system.mem_ctrls0.writePktSize::4                   0                       # Write request sizes (log2)
system.mem_ctrls0.writePktSize::5                   0                       # Write request sizes (log2)
system.mem_ctrls0.writePktSize::6                5648                       # Write request sizes (log2)
system.mem_ctrls0.rdQLenPdf::0                  43892                       # What read queue length does an incoming req see
system.mem_ctrls0.rdQLenPdf::1                    172                       # What read queue length does an incoming req see
system.mem_ctrls0.rdQLenPdf::2                      9                       # What read queue length does an incoming req see
system.mem_ctrls0.rdQLenPdf::3                      0                       # What read queue length does an incoming req see
system.mem_ctrls0.rdQLenPdf::4                      0                       # What read queue length does an incoming req see
system.mem_ctrls0.rdQLenPdf::5                      0                       # What read queue length does an incoming req see
system.mem_ctrls0.rdQLenPdf::6                      0                       # What read queue length does an incoming req see
system.mem_ctrls0.rdQLenPdf::7                      0                       # What read queue length does an incoming req see
system.mem_ctrls0.rdQLenPdf::8                      0                       # What read queue length does an incoming req see
system.mem_ctrls0.rdQLenPdf::9                      0                       # What read queue length does an incoming req see
system.mem_ctrls0.rdQLenPdf::10                     0                       # What read queue length does an incoming req see
system.mem_ctrls0.rdQLenPdf::11                     0                       # What read queue length does an incoming req see
system.mem_ctrls0.rdQLenPdf::12                     0                       # What read queue length does an incoming req see
system.mem_ctrls0.rdQLenPdf::13                     0                       # What read queue length does an incoming req see
system.mem_ctrls0.rdQLenPdf::14                     0                       # What read queue length does an incoming req see
system.mem_ctrls0.rdQLenPdf::15                     0                       # What read queue length does an incoming req see
system.mem_ctrls0.rdQLenPdf::16                     0                       # What read queue length does an incoming req see
system.mem_ctrls0.rdQLenPdf::17                     0                       # What read queue length does an incoming req see
system.mem_ctrls0.rdQLenPdf::18                     0                       # What read queue length does an incoming req see
system.mem_ctrls0.rdQLenPdf::19                     0                       # What read queue length does an incoming req see
system.mem_ctrls0.rdQLenPdf::20                     0                       # What read queue length does an incoming req see
system.mem_ctrls0.rdQLenPdf::21                     0                       # What read queue length does an incoming req see
system.mem_ctrls0.rdQLenPdf::22                     0                       # What read queue length does an incoming req see
system.mem_ctrls0.rdQLenPdf::23                     0                       # What read queue length does an incoming req see
system.mem_ctrls0.rdQLenPdf::24                     0                       # What read queue length does an incoming req see
system.mem_ctrls0.rdQLenPdf::25                     0                       # What read queue length does an incoming req see
system.mem_ctrls0.rdQLenPdf::26                     0                       # What read queue length does an incoming req see
system.mem_ctrls0.rdQLenPdf::27                     0                       # What read queue length does an incoming req see
system.mem_ctrls0.rdQLenPdf::28                     0                       # What read queue length does an incoming req see
system.mem_ctrls0.rdQLenPdf::29                     0                       # What read queue length does an incoming req see
system.mem_ctrls0.rdQLenPdf::30                     0                       # What read queue length does an incoming req see
system.mem_ctrls0.rdQLenPdf::31                     0                       # What read queue length does an incoming req see
system.mem_ctrls0.wrQLenPdf::0                      2                       # What write queue length does an incoming req see
system.mem_ctrls0.wrQLenPdf::1                      2                       # What write queue length does an incoming req see
system.mem_ctrls0.wrQLenPdf::2                      2                       # What write queue length does an incoming req see
system.mem_ctrls0.wrQLenPdf::3                      2                       # What write queue length does an incoming req see
system.mem_ctrls0.wrQLenPdf::4                      2                       # What write queue length does an incoming req see
system.mem_ctrls0.wrQLenPdf::5                      2                       # What write queue length does an incoming req see
system.mem_ctrls0.wrQLenPdf::6                      2                       # What write queue length does an incoming req see
system.mem_ctrls0.wrQLenPdf::7                      2                       # What write queue length does an incoming req see
system.mem_ctrls0.wrQLenPdf::8                      2                       # What write queue length does an incoming req see
system.mem_ctrls0.wrQLenPdf::9                      2                       # What write queue length does an incoming req see
system.mem_ctrls0.wrQLenPdf::10                     2                       # What write queue length does an incoming req see
system.mem_ctrls0.wrQLenPdf::11                     2                       # What write queue length does an incoming req see
system.mem_ctrls0.wrQLenPdf::12                     2                       # What write queue length does an incoming req see
system.mem_ctrls0.wrQLenPdf::13                     2                       # What write queue length does an incoming req see
system.mem_ctrls0.wrQLenPdf::14                     2                       # What write queue length does an incoming req see
system.mem_ctrls0.wrQLenPdf::15                   287                       # What write queue length does an incoming req see
system.mem_ctrls0.wrQLenPdf::16                   296                       # What write queue length does an incoming req see
system.mem_ctrls0.wrQLenPdf::17                   315                       # What write queue length does an incoming req see
system.mem_ctrls0.wrQLenPdf::18                   315                       # What write queue length does an incoming req see
system.mem_ctrls0.wrQLenPdf::19                   315                       # What write queue length does an incoming req see
system.mem_ctrls0.wrQLenPdf::20                   315                       # What write queue length does an incoming req see
system.mem_ctrls0.wrQLenPdf::21                   314                       # What write queue length does an incoming req see
system.mem_ctrls0.wrQLenPdf::22                   314                       # What write queue length does an incoming req see
system.mem_ctrls0.wrQLenPdf::23                   314                       # What write queue length does an incoming req see
system.mem_ctrls0.wrQLenPdf::24                   315                       # What write queue length does an incoming req see
system.mem_ctrls0.wrQLenPdf::25                   317                       # What write queue length does an incoming req see
system.mem_ctrls0.wrQLenPdf::26                   317                       # What write queue length does an incoming req see
system.mem_ctrls0.wrQLenPdf::27                   315                       # What write queue length does an incoming req see
system.mem_ctrls0.wrQLenPdf::28                   314                       # What write queue length does an incoming req see
system.mem_ctrls0.wrQLenPdf::29                   315                       # What write queue length does an incoming req see
system.mem_ctrls0.wrQLenPdf::30                   312                       # What write queue length does an incoming req see
system.mem_ctrls0.wrQLenPdf::31                   312                       # What write queue length does an incoming req see
system.mem_ctrls0.wrQLenPdf::32                   312                       # What write queue length does an incoming req see
system.mem_ctrls0.wrQLenPdf::33                     2                       # What write queue length does an incoming req see
system.mem_ctrls0.wrQLenPdf::34                     0                       # What write queue length does an incoming req see
system.mem_ctrls0.wrQLenPdf::35                     0                       # What write queue length does an incoming req see
system.mem_ctrls0.wrQLenPdf::36                     0                       # What write queue length does an incoming req see
system.mem_ctrls0.wrQLenPdf::37                     0                       # What write queue length does an incoming req see
system.mem_ctrls0.wrQLenPdf::38                     0                       # What write queue length does an incoming req see
system.mem_ctrls0.wrQLenPdf::39                     0                       # What write queue length does an incoming req see
system.mem_ctrls0.wrQLenPdf::40                     0                       # What write queue length does an incoming req see
system.mem_ctrls0.wrQLenPdf::41                     0                       # What write queue length does an incoming req see
system.mem_ctrls0.wrQLenPdf::42                     0                       # What write queue length does an incoming req see
system.mem_ctrls0.wrQLenPdf::43                     0                       # What write queue length does an incoming req see
system.mem_ctrls0.wrQLenPdf::44                     0                       # What write queue length does an incoming req see
system.mem_ctrls0.wrQLenPdf::45                     0                       # What write queue length does an incoming req see
system.mem_ctrls0.wrQLenPdf::46                     0                       # What write queue length does an incoming req see
system.mem_ctrls0.wrQLenPdf::47                     0                       # What write queue length does an incoming req see
system.mem_ctrls0.wrQLenPdf::48                     0                       # What write queue length does an incoming req see
system.mem_ctrls0.wrQLenPdf::49                     0                       # What write queue length does an incoming req see
system.mem_ctrls0.wrQLenPdf::50                     0                       # What write queue length does an incoming req see
system.mem_ctrls0.wrQLenPdf::51                     0                       # What write queue length does an incoming req see
system.mem_ctrls0.wrQLenPdf::52                     0                       # What write queue length does an incoming req see
system.mem_ctrls0.wrQLenPdf::53                     0                       # What write queue length does an incoming req see
system.mem_ctrls0.wrQLenPdf::54                     0                       # What write queue length does an incoming req see
system.mem_ctrls0.wrQLenPdf::55                     0                       # What write queue length does an incoming req see
system.mem_ctrls0.wrQLenPdf::56                     0                       # What write queue length does an incoming req see
system.mem_ctrls0.wrQLenPdf::57                     0                       # What write queue length does an incoming req see
system.mem_ctrls0.wrQLenPdf::58                     0                       # What write queue length does an incoming req see
system.mem_ctrls0.wrQLenPdf::59                     0                       # What write queue length does an incoming req see
system.mem_ctrls0.wrQLenPdf::60                     0                       # What write queue length does an incoming req see
system.mem_ctrls0.wrQLenPdf::61                     0                       # What write queue length does an incoming req see
system.mem_ctrls0.wrQLenPdf::62                     0                       # What write queue length does an incoming req see
system.mem_ctrls0.wrQLenPdf::63                     0                       # What write queue length does an incoming req see
system.mem_ctrls0.bytesPerActivate::samples        21225                       # Bytes accessed per row activation
system.mem_ctrls0.bytesPerActivate::mean   149.827845                       # Bytes accessed per row activation
system.mem_ctrls0.bytesPerActivate::gmean   107.650782                       # Bytes accessed per row activation
system.mem_ctrls0.bytesPerActivate::stdev   175.129157                       # Bytes accessed per row activation
system.mem_ctrls0.bytesPerActivate::0-127        11906     56.09%     56.09% # Bytes accessed per row activation
system.mem_ctrls0.bytesPerActivate::128-255         6299     29.68%     85.77% # Bytes accessed per row activation
system.mem_ctrls0.bytesPerActivate::256-383         1263      5.95%     91.72% # Bytes accessed per row activation
system.mem_ctrls0.bytesPerActivate::384-511          817      3.85%     95.57% # Bytes accessed per row activation
system.mem_ctrls0.bytesPerActivate::512-639          170      0.80%     96.37% # Bytes accessed per row activation
system.mem_ctrls0.bytesPerActivate::640-767          125      0.59%     96.96% # Bytes accessed per row activation
system.mem_ctrls0.bytesPerActivate::768-895          104      0.49%     97.45% # Bytes accessed per row activation
system.mem_ctrls0.bytesPerActivate::896-1023          164      0.77%     98.22% # Bytes accessed per row activation
system.mem_ctrls0.bytesPerActivate::1024-1151          377      1.78%    100.00% # Bytes accessed per row activation
system.mem_ctrls0.bytesPerActivate::total        21225                       # Bytes accessed per row activation
system.mem_ctrls0.rdPerTurnAround::samples          313                       # Reads before turning the bus around for writes
system.mem_ctrls0.rdPerTurnAround::mean    140.750799                       # Reads before turning the bus around for writes
system.mem_ctrls0.rdPerTurnAround::stdev  1600.133965                       # Reads before turning the bus around for writes
system.mem_ctrls0.rdPerTurnAround::0-1023          312     99.68%     99.68% # Reads before turning the bus around for writes
system.mem_ctrls0.rdPerTurnAround::27648-28671            1      0.32%    100.00% # Reads before turning the bus around for writes
system.mem_ctrls0.rdPerTurnAround::total          313                       # Reads before turning the bus around for writes
system.mem_ctrls0.wrPerTurnAround::samples          313                       # Writes before turning the bus around for reads
system.mem_ctrls0.wrPerTurnAround::mean     17.942492                       # Writes before turning the bus around for reads
system.mem_ctrls0.wrPerTurnAround::gmean    17.921939                       # Writes before turning the bus around for reads
system.mem_ctrls0.wrPerTurnAround::stdev     0.928476                       # Writes before turning the bus around for reads
system.mem_ctrls0.wrPerTurnAround::16              24      7.67%      7.67% # Writes before turning the bus around for reads
system.mem_ctrls0.wrPerTurnAround::17               3      0.96%      8.63% # Writes before turning the bus around for reads
system.mem_ctrls0.wrPerTurnAround::18             267     85.30%     93.93% # Writes before turning the bus around for reads
system.mem_ctrls0.wrPerTurnAround::19              15      4.79%     98.72% # Writes before turning the bus around for reads
system.mem_ctrls0.wrPerTurnAround::20               3      0.96%     99.68% # Writes before turning the bus around for reads
system.mem_ctrls0.wrPerTurnAround::30               1      0.32%    100.00% # Writes before turning the bus around for reads
system.mem_ctrls0.wrPerTurnAround::total          313                       # Writes before turning the bus around for reads
system.mem_ctrls0.totQLat                  3748724969                       # Total ticks spent queuing
system.mem_ctrls0.totMemAccLat             4575093719                       # Total ticks spent from burst creation until serviced by the DRAM
system.mem_ctrls0.totBusLat                 220365000                       # Total ticks spent in databus transfers
system.mem_ctrls0.avgQLat                    85057.18                       # Average queueing delay per DRAM burst
system.mem_ctrls0.avgBusLat                   5000.00                       # Average bus latency per DRAM burst
system.mem_ctrls0.avgMemAccLat              103807.18                       # Average memory access latency per DRAM burst
system.mem_ctrls0.avgRdBW                        2.80                       # Average DRAM read bandwidth in MiByte/s
system.mem_ctrls0.avgWrBW                        0.36                       # Average achieved write bandwidth in MiByte/s
system.mem_ctrls0.avgRdBWSys                     2.85                       # Average system read bandwidth in MiByte/s
system.mem_ctrls0.avgWrBWSys                     0.36                       # Average system write bandwidth in MiByte/s
system.mem_ctrls0.peakBW                     12800.00                       # Theoretical peak bandwidth in MiByte/s
system.mem_ctrls0.busUtil                        0.02                       # Data bus utilization in percentage
system.mem_ctrls0.busUtilRead                    0.02                       # Data bus utilization in percentage for reads
system.mem_ctrls0.busUtilWrite                   0.00                       # Data bus utilization in percentage for writes
system.mem_ctrls0.avgRdQLen                      1.00                       # Average read queue length when enqueuing
system.mem_ctrls0.avgWrQLen                     13.89                       # Average write queue length when enqueuing
system.mem_ctrls0.readRowHits                   27415                       # Number of row buffer hits during reads
system.mem_ctrls0.writeRowHits                   1049                       # Number of row buffer hits during writes
system.mem_ctrls0.readRowHitRate                62.20                       # Row buffer hit rate for reads
system.mem_ctrls0.writeRowHitRate               18.58                       # Row buffer hit rate for writes
system.mem_ctrls0.avgGap                  19933696.87                       # Average gap between requests
system.mem_ctrls0.pageHitRate                   57.25                       # Row buffer hit rate, read and write combined
system.mem_ctrls0_0.actEnergy                70007700                       # Energy for activate commands per rank (pJ)
system.mem_ctrls0_0.preEnergy                37209975                       # Energy for precharge commands per rank (pJ)
system.mem_ctrls0_0.readEnergy              151846380                       # Energy for read commands per rank (pJ)
system.mem_ctrls0_0.writeEnergy              13874760                       # Energy for write commands per rank (pJ)
system.mem_ctrls0_0.refreshEnergy        6458022480.000002                       # Energy for refresh commands per rank (pJ)
system.mem_ctrls0_0.actBackEnergy          2079147390                       # Energy for active background per rank (pJ)
system.mem_ctrls0_0.preBackEnergy           390307200                       # Energy for precharge background per rank (pJ)
system.mem_ctrls0_0.actPowerDownEnergy    13697784570                       # Energy for active power-down per rank (pJ)
system.mem_ctrls0_0.prePowerDownEnergy     9719204160                       # Energy for precharge power-down per rank (pJ)
system.mem_ctrls0_0.selfRefreshEnergy    228328153545                       # Energy for self refresh per rank (pJ)
system.mem_ctrls0_0.totalEnergy          260947478850                       # Total energy per rank (pJ)
system.mem_ctrls0_0.averagePower           259.478239                       # Core power per rank (mW)
system.mem_ctrls0_0.totalIdleTime        1000082025309                       # Total Idle time Per DRAM Rank
system.mem_ctrls0_0.memoryStateTime::IDLE    791114818                       # Time in different power states
system.mem_ctrls0_0.memoryStateTime::REF   2749254021                       # Time in different power states
system.mem_ctrls0_0.memoryStateTime::SREF 944732610543                       # Time in different power states
system.mem_ctrls0_0.memoryStateTime::PRE_PDN  25310359194                       # Time in different power states
system.mem_ctrls0_0.memoryStateTime::ACT   2039872916                       # Time in different power states
system.mem_ctrls0_0.memoryStateTime::ACT_PDN  30039055572                       # Time in different power states
system.mem_ctrls0_1.actEnergy                81538800                       # Energy for activate commands per rank (pJ)
system.mem_ctrls0_1.preEnergy                43338900                       # Energy for precharge commands per rank (pJ)
system.mem_ctrls0_1.readEnergy              162834840                       # Energy for read commands per rank (pJ)
system.mem_ctrls0_1.writeEnergy              15440760                       # Energy for write commands per rank (pJ)
system.mem_ctrls0_1.refreshEnergy        7598794320.000002                       # Energy for refresh commands per rank (pJ)
system.mem_ctrls0_1.actBackEnergy          2282227560                       # Energy for active background per rank (pJ)
system.mem_ctrls0_1.preBackEnergy           458605920                       # Energy for precharge background per rank (pJ)
system.mem_ctrls0_1.actPowerDownEnergy    16189593150                       # Energy for active power-down per rank (pJ)
system.mem_ctrls0_1.prePowerDownEnergy    11661449760                       # Energy for precharge power-down per rank (pJ)
system.mem_ctrls0_1.selfRefreshEnergy    225904872060                       # Energy for self refresh per rank (pJ)
system.mem_ctrls0_1.totalEnergy          264400429170                       # Total energy per rank (pJ)
system.mem_ctrls0_1.averagePower           262.911752                       # Core power per rank (mW)
system.mem_ctrls0_1.totalIdleTime        999451785745                       # Total Idle time Per DRAM Rank
system.mem_ctrls0_1.memoryStateTime::IDLE    926826260                       # Time in different power states
system.mem_ctrls0_1.memoryStateTime::REF   3234720000                       # Time in different power states
system.mem_ctrls0_1.memoryStateTime::SREF 933587426314                       # Time in different power states
system.mem_ctrls0_1.memoryStateTime::PRE_PDN  30368392508                       # Time in different power states
system.mem_ctrls0_1.memoryStateTime::ACT   2041414545                       # Time in different power states
system.mem_ctrls0_1.memoryStateTime::ACT_PDN  35503487437                       # Time in different power states
system.mem_ctrls1.pwrStateResidencyTicks::UNDEFINED 176556946388931                       # Cumulative time (in ticks) in various power states
system.mem_ctrls1.bytes_read::cpu.inst            192                       # Number of bytes read from this memory
system.mem_ctrls1.bytes_read::cpu.data            128                       # Number of bytes read from this memory
system.mem_ctrls1.bytes_read::switch_cpus.inst        47808                       # Number of bytes read from this memory
system.mem_ctrls1.bytes_read::switch_cpus.data      2396480                       # Number of bytes read from this memory
system.mem_ctrls1.bytes_read::switch_cpus_1.inst        12800                       # Number of bytes read from this memory
system.mem_ctrls1.bytes_read::switch_cpus_1.data       412032                       # Number of bytes read from this memory
system.mem_ctrls1.bytes_read::total           2869440                       # Number of bytes read from this memory
system.mem_ctrls1.bytes_inst_read::cpu.inst          192                       # Number of instructions bytes read from this memory
system.mem_ctrls1.bytes_inst_read::switch_cpus.inst        47808                       # Number of instructions bytes read from this memory
system.mem_ctrls1.bytes_inst_read::switch_cpus_1.inst        12800                       # Number of instructions bytes read from this memory
system.mem_ctrls1.bytes_inst_read::total        60800                       # Number of instructions bytes read from this memory
system.mem_ctrls1.bytes_written::writebacks       364288                       # Number of bytes written to this memory
system.mem_ctrls1.bytes_written::total         364288                       # Number of bytes written to this memory
system.mem_ctrls1.num_reads::cpu.inst               3                       # Number of read requests responded to by this memory
system.mem_ctrls1.num_reads::cpu.data               2                       # Number of read requests responded to by this memory
system.mem_ctrls1.num_reads::switch_cpus.inst          747                       # Number of read requests responded to by this memory
system.mem_ctrls1.num_reads::switch_cpus.data        37445                       # Number of read requests responded to by this memory
system.mem_ctrls1.num_reads::switch_cpus_1.inst          200                       # Number of read requests responded to by this memory
system.mem_ctrls1.num_reads::switch_cpus_1.data         6438                       # Number of read requests responded to by this memory
system.mem_ctrls1.num_reads::total              44835                       # Number of read requests responded to by this memory
system.mem_ctrls1.num_writes::writebacks         5692                       # Number of write requests responded to by this memory
system.mem_ctrls1.num_writes::total              5692                       # Number of write requests responded to by this memory
system.mem_ctrls1.bw_read::cpu.inst               191                       # Total read bandwidth from this memory (bytes/s)
system.mem_ctrls1.bw_read::cpu.data               127                       # Total read bandwidth from this memory (bytes/s)
system.mem_ctrls1.bw_read::switch_cpus.inst        47539                       # Total read bandwidth from this memory (bytes/s)
system.mem_ctrls1.bw_read::switch_cpus.data      2382987                       # Total read bandwidth from this memory (bytes/s)
system.mem_ctrls1.bw_read::switch_cpus_1.inst        12728                       # Total read bandwidth from this memory (bytes/s)
system.mem_ctrls1.bw_read::switch_cpus_1.data       409712                       # Total read bandwidth from this memory (bytes/s)
system.mem_ctrls1.bw_read::total              2853284                       # Total read bandwidth from this memory (bytes/s)
system.mem_ctrls1.bw_inst_read::cpu.inst          191                       # Instruction read bandwidth from this memory (bytes/s)
system.mem_ctrls1.bw_inst_read::switch_cpus.inst        47539                       # Instruction read bandwidth from this memory (bytes/s)
system.mem_ctrls1.bw_inst_read::switch_cpus_1.inst        12728                       # Instruction read bandwidth from this memory (bytes/s)
system.mem_ctrls1.bw_inst_read::total           60458                       # Instruction read bandwidth from this memory (bytes/s)
system.mem_ctrls1.bw_write::writebacks         362237                       # Write bandwidth from this memory (bytes/s)
system.mem_ctrls1.bw_write::total              362237                       # Write bandwidth from this memory (bytes/s)
system.mem_ctrls1.bw_total::writebacks         362237                       # Total bandwidth to/from this memory (bytes/s)
system.mem_ctrls1.bw_total::cpu.inst              191                       # Total bandwidth to/from this memory (bytes/s)
system.mem_ctrls1.bw_total::cpu.data              127                       # Total bandwidth to/from this memory (bytes/s)
system.mem_ctrls1.bw_total::switch_cpus.inst        47539                       # Total bandwidth to/from this memory (bytes/s)
system.mem_ctrls1.bw_total::switch_cpus.data      2382987                       # Total bandwidth to/from this memory (bytes/s)
system.mem_ctrls1.bw_total::switch_cpus_1.inst        12728                       # Total bandwidth to/from this memory (bytes/s)
system.mem_ctrls1.bw_total::switch_cpus_1.data       409712                       # Total bandwidth to/from this memory (bytes/s)
system.mem_ctrls1.bw_total::total             3215521                       # Total bandwidth to/from this memory (bytes/s)
system.mem_ctrls1.readReqs                      44835                       # Number of read requests accepted
system.mem_ctrls1.writeReqs                      5692                       # Number of write requests accepted
system.mem_ctrls1.readBursts                    44835                       # Number of DRAM read bursts, including those serviced by the write queue
system.mem_ctrls1.writeBursts                    5692                       # Number of DRAM write bursts, including those merged in the write queue
system.mem_ctrls1.bytesReadDRAM               2822208                       # Total number of bytes read from DRAM
system.mem_ctrls1.bytesReadWrQ                  47232                       # Total number of bytes read from write queue
system.mem_ctrls1.bytesWritten                 362368                       # Total number of bytes written to DRAM
system.mem_ctrls1.bytesReadSys                2869440                       # Total read bytes from the system interface side
system.mem_ctrls1.bytesWrittenSys              364288                       # Total written bytes from the system interface side
system.mem_ctrls1.servicedByWrQ                   738                       # Number of DRAM read bursts serviced by the write queue
system.mem_ctrls1.mergedWrBursts                    1                       # Number of DRAM write bursts merged with an existing one
system.mem_ctrls1.neitherReadNorWriteReqs            0                       # Number of requests that are neither read nor write
system.mem_ctrls1.perBankRdBursts::0             2853                       # Per bank write bursts
system.mem_ctrls1.perBankRdBursts::1             2352                       # Per bank write bursts
system.mem_ctrls1.perBankRdBursts::2             2479                       # Per bank write bursts
system.mem_ctrls1.perBankRdBursts::3             2648                       # Per bank write bursts
system.mem_ctrls1.perBankRdBursts::4             2484                       # Per bank write bursts
system.mem_ctrls1.perBankRdBursts::5             2557                       # Per bank write bursts
system.mem_ctrls1.perBankRdBursts::6             3080                       # Per bank write bursts
system.mem_ctrls1.perBankRdBursts::7             2764                       # Per bank write bursts
system.mem_ctrls1.perBankRdBursts::8             2855                       # Per bank write bursts
system.mem_ctrls1.perBankRdBursts::9             2797                       # Per bank write bursts
system.mem_ctrls1.perBankRdBursts::10            2836                       # Per bank write bursts
system.mem_ctrls1.perBankRdBursts::11            2682                       # Per bank write bursts
system.mem_ctrls1.perBankRdBursts::12            2868                       # Per bank write bursts
system.mem_ctrls1.perBankRdBursts::13            2700                       # Per bank write bursts
system.mem_ctrls1.perBankRdBursts::14            3335                       # Per bank write bursts
system.mem_ctrls1.perBankRdBursts::15            2807                       # Per bank write bursts
system.mem_ctrls1.perBankWrBursts::0              405                       # Per bank write bursts
system.mem_ctrls1.perBankWrBursts::1              189                       # Per bank write bursts
system.mem_ctrls1.perBankWrBursts::2              265                       # Per bank write bursts
system.mem_ctrls1.perBankWrBursts::3              227                       # Per bank write bursts
system.mem_ctrls1.perBankWrBursts::4              319                       # Per bank write bursts
system.mem_ctrls1.perBankWrBursts::5              195                       # Per bank write bursts
system.mem_ctrls1.perBankWrBursts::6              627                       # Per bank write bursts
system.mem_ctrls1.perBankWrBursts::7              347                       # Per bank write bursts
system.mem_ctrls1.perBankWrBursts::8              436                       # Per bank write bursts
system.mem_ctrls1.perBankWrBursts::9              249                       # Per bank write bursts
system.mem_ctrls1.perBankWrBursts::10             289                       # Per bank write bursts
system.mem_ctrls1.perBankWrBursts::11             300                       # Per bank write bursts
system.mem_ctrls1.perBankWrBursts::12             363                       # Per bank write bursts
system.mem_ctrls1.perBankWrBursts::13             272                       # Per bank write bursts
system.mem_ctrls1.perBankWrBursts::14             782                       # Per bank write bursts
system.mem_ctrls1.perBankWrBursts::15             397                       # Per bank write bursts
system.mem_ctrls1.numRdRetry                        0                       # Number of times read queue was full causing retry
system.mem_ctrls1.numWrRetry                        0                       # Number of times write queue was full causing retry
system.mem_ctrls1.totGap                 1005655892778                       # Total gap between requests
system.mem_ctrls1.readPktSize::0                    0                       # Read request sizes (log2)
system.mem_ctrls1.readPktSize::1                    0                       # Read request sizes (log2)
system.mem_ctrls1.readPktSize::2                    0                       # Read request sizes (log2)
system.mem_ctrls1.readPktSize::3                    0                       # Read request sizes (log2)
system.mem_ctrls1.readPktSize::4                    0                       # Read request sizes (log2)
system.mem_ctrls1.readPktSize::5                    0                       # Read request sizes (log2)
system.mem_ctrls1.readPktSize::6                44835                       # Read request sizes (log2)
system.mem_ctrls1.writePktSize::0                   0                       # Write request sizes (log2)
system.mem_ctrls1.writePktSize::1                   0                       # Write request sizes (log2)
system.mem_ctrls1.writePktSize::2                   0                       # Write request sizes (log2)
system.mem_ctrls1.writePktSize::3                   0                       # Write request sizes (log2)
system.mem_ctrls1.writePktSize::4                   0                       # Write request sizes (log2)
system.mem_ctrls1.writePktSize::5                   0                       # Write request sizes (log2)
system.mem_ctrls1.writePktSize::6                5692                       # Write request sizes (log2)
system.mem_ctrls1.rdQLenPdf::0                  43879                       # What read queue length does an incoming req see
system.mem_ctrls1.rdQLenPdf::1                    212                       # What read queue length does an incoming req see
system.mem_ctrls1.rdQLenPdf::2                      6                       # What read queue length does an incoming req see
system.mem_ctrls1.rdQLenPdf::3                      0                       # What read queue length does an incoming req see
system.mem_ctrls1.rdQLenPdf::4                      0                       # What read queue length does an incoming req see
system.mem_ctrls1.rdQLenPdf::5                      0                       # What read queue length does an incoming req see
system.mem_ctrls1.rdQLenPdf::6                      0                       # What read queue length does an incoming req see
system.mem_ctrls1.rdQLenPdf::7                      0                       # What read queue length does an incoming req see
system.mem_ctrls1.rdQLenPdf::8                      0                       # What read queue length does an incoming req see
system.mem_ctrls1.rdQLenPdf::9                      0                       # What read queue length does an incoming req see
system.mem_ctrls1.rdQLenPdf::10                     0                       # What read queue length does an incoming req see
system.mem_ctrls1.rdQLenPdf::11                     0                       # What read queue length does an incoming req see
system.mem_ctrls1.rdQLenPdf::12                     0                       # What read queue length does an incoming req see
system.mem_ctrls1.rdQLenPdf::13                     0                       # What read queue length does an incoming req see
system.mem_ctrls1.rdQLenPdf::14                     0                       # What read queue length does an incoming req see
system.mem_ctrls1.rdQLenPdf::15                     0                       # What read queue length does an incoming req see
system.mem_ctrls1.rdQLenPdf::16                     0                       # What read queue length does an incoming req see
system.mem_ctrls1.rdQLenPdf::17                     0                       # What read queue length does an incoming req see
system.mem_ctrls1.rdQLenPdf::18                     0                       # What read queue length does an incoming req see
system.mem_ctrls1.rdQLenPdf::19                     0                       # What read queue length does an incoming req see
system.mem_ctrls1.rdQLenPdf::20                     0                       # What read queue length does an incoming req see
system.mem_ctrls1.rdQLenPdf::21                     0                       # What read queue length does an incoming req see
system.mem_ctrls1.rdQLenPdf::22                     0                       # What read queue length does an incoming req see
system.mem_ctrls1.rdQLenPdf::23                     0                       # What read queue length does an incoming req see
system.mem_ctrls1.rdQLenPdf::24                     0                       # What read queue length does an incoming req see
system.mem_ctrls1.rdQLenPdf::25                     0                       # What read queue length does an incoming req see
system.mem_ctrls1.rdQLenPdf::26                     0                       # What read queue length does an incoming req see
system.mem_ctrls1.rdQLenPdf::27                     0                       # What read queue length does an incoming req see
system.mem_ctrls1.rdQLenPdf::28                     0                       # What read queue length does an incoming req see
system.mem_ctrls1.rdQLenPdf::29                     0                       # What read queue length does an incoming req see
system.mem_ctrls1.rdQLenPdf::30                     0                       # What read queue length does an incoming req see
system.mem_ctrls1.rdQLenPdf::31                     0                       # What read queue length does an incoming req see
system.mem_ctrls1.wrQLenPdf::0                      2                       # What write queue length does an incoming req see
system.mem_ctrls1.wrQLenPdf::1                      2                       # What write queue length does an incoming req see
system.mem_ctrls1.wrQLenPdf::2                      2                       # What write queue length does an incoming req see
system.mem_ctrls1.wrQLenPdf::3                      2                       # What write queue length does an incoming req see
system.mem_ctrls1.wrQLenPdf::4                      2                       # What write queue length does an incoming req see
system.mem_ctrls1.wrQLenPdf::5                      2                       # What write queue length does an incoming req see
system.mem_ctrls1.wrQLenPdf::6                      2                       # What write queue length does an incoming req see
system.mem_ctrls1.wrQLenPdf::7                      2                       # What write queue length does an incoming req see
system.mem_ctrls1.wrQLenPdf::8                      2                       # What write queue length does an incoming req see
system.mem_ctrls1.wrQLenPdf::9                      2                       # What write queue length does an incoming req see
system.mem_ctrls1.wrQLenPdf::10                     2                       # What write queue length does an incoming req see
system.mem_ctrls1.wrQLenPdf::11                     2                       # What write queue length does an incoming req see
system.mem_ctrls1.wrQLenPdf::12                     2                       # What write queue length does an incoming req see
system.mem_ctrls1.wrQLenPdf::13                     2                       # What write queue length does an incoming req see
system.mem_ctrls1.wrQLenPdf::14                     2                       # What write queue length does an incoming req see
system.mem_ctrls1.wrQLenPdf::15                   288                       # What write queue length does an incoming req see
system.mem_ctrls1.wrQLenPdf::16                   291                       # What write queue length does an incoming req see
system.mem_ctrls1.wrQLenPdf::17                   315                       # What write queue length does an incoming req see
system.mem_ctrls1.wrQLenPdf::18                   318                       # What write queue length does an incoming req see
system.mem_ctrls1.wrQLenPdf::19                   317                       # What write queue length does an incoming req see
system.mem_ctrls1.wrQLenPdf::20                   318                       # What write queue length does an incoming req see
system.mem_ctrls1.wrQLenPdf::21                   318                       # What write queue length does an incoming req see
system.mem_ctrls1.wrQLenPdf::22                   317                       # What write queue length does an incoming req see
system.mem_ctrls1.wrQLenPdf::23                   318                       # What write queue length does an incoming req see
system.mem_ctrls1.wrQLenPdf::24                   318                       # What write queue length does an incoming req see
system.mem_ctrls1.wrQLenPdf::25                   317                       # What write queue length does an incoming req see
system.mem_ctrls1.wrQLenPdf::26                   317                       # What write queue length does an incoming req see
system.mem_ctrls1.wrQLenPdf::27                   317                       # What write queue length does an incoming req see
system.mem_ctrls1.wrQLenPdf::28                   317                       # What write queue length does an incoming req see
system.mem_ctrls1.wrQLenPdf::29                   319                       # What write queue length does an incoming req see
system.mem_ctrls1.wrQLenPdf::30                   317                       # What write queue length does an incoming req see
system.mem_ctrls1.wrQLenPdf::31                   316                       # What write queue length does an incoming req see
system.mem_ctrls1.wrQLenPdf::32                   316                       # What write queue length does an incoming req see
system.mem_ctrls1.wrQLenPdf::33                     6                       # What write queue length does an incoming req see
system.mem_ctrls1.wrQLenPdf::34                     1                       # What write queue length does an incoming req see
system.mem_ctrls1.wrQLenPdf::35                     0                       # What write queue length does an incoming req see
system.mem_ctrls1.wrQLenPdf::36                     0                       # What write queue length does an incoming req see
system.mem_ctrls1.wrQLenPdf::37                     0                       # What write queue length does an incoming req see
system.mem_ctrls1.wrQLenPdf::38                     0                       # What write queue length does an incoming req see
system.mem_ctrls1.wrQLenPdf::39                     0                       # What write queue length does an incoming req see
system.mem_ctrls1.wrQLenPdf::40                     0                       # What write queue length does an incoming req see
system.mem_ctrls1.wrQLenPdf::41                     0                       # What write queue length does an incoming req see
system.mem_ctrls1.wrQLenPdf::42                     0                       # What write queue length does an incoming req see
system.mem_ctrls1.wrQLenPdf::43                     0                       # What write queue length does an incoming req see
system.mem_ctrls1.wrQLenPdf::44                     0                       # What write queue length does an incoming req see
system.mem_ctrls1.wrQLenPdf::45                     0                       # What write queue length does an incoming req see
system.mem_ctrls1.wrQLenPdf::46                     0                       # What write queue length does an incoming req see
system.mem_ctrls1.wrQLenPdf::47                     0                       # What write queue length does an incoming req see
system.mem_ctrls1.wrQLenPdf::48                     0                       # What write queue length does an incoming req see
system.mem_ctrls1.wrQLenPdf::49                     0                       # What write queue length does an incoming req see
system.mem_ctrls1.wrQLenPdf::50                     0                       # What write queue length does an incoming req see
system.mem_ctrls1.wrQLenPdf::51                     0                       # What write queue length does an incoming req see
system.mem_ctrls1.wrQLenPdf::52                     0                       # What write queue length does an incoming req see
system.mem_ctrls1.wrQLenPdf::53                     0                       # What write queue length does an incoming req see
system.mem_ctrls1.wrQLenPdf::54                     0                       # What write queue length does an incoming req see
system.mem_ctrls1.wrQLenPdf::55                     0                       # What write queue length does an incoming req see
system.mem_ctrls1.wrQLenPdf::56                     0                       # What write queue length does an incoming req see
system.mem_ctrls1.wrQLenPdf::57                     0                       # What write queue length does an incoming req see
system.mem_ctrls1.wrQLenPdf::58                     0                       # What write queue length does an incoming req see
system.mem_ctrls1.wrQLenPdf::59                     0                       # What write queue length does an incoming req see
system.mem_ctrls1.wrQLenPdf::60                     0                       # What write queue length does an incoming req see
system.mem_ctrls1.wrQLenPdf::61                     0                       # What write queue length does an incoming req see
system.mem_ctrls1.wrQLenPdf::62                     0                       # What write queue length does an incoming req see
system.mem_ctrls1.wrQLenPdf::63                     0                       # What write queue length does an incoming req see
system.mem_ctrls1.bytesPerActivate::samples        21196                       # Bytes accessed per row activation
system.mem_ctrls1.bytesPerActivate::mean   150.241178                       # Bytes accessed per row activation
system.mem_ctrls1.bytesPerActivate::gmean   107.469775                       # Bytes accessed per row activation
system.mem_ctrls1.bytesPerActivate::stdev   177.191169                       # Bytes accessed per row activation
system.mem_ctrls1.bytesPerActivate::0-127        11962     56.44%     56.44% # Bytes accessed per row activation
system.mem_ctrls1.bytesPerActivate::128-255         6233     29.41%     85.84% # Bytes accessed per row activation
system.mem_ctrls1.bytesPerActivate::256-383         1211      5.71%     91.56% # Bytes accessed per row activation
system.mem_ctrls1.bytesPerActivate::384-511          834      3.93%     95.49% # Bytes accessed per row activation
system.mem_ctrls1.bytesPerActivate::512-639          175      0.83%     96.32% # Bytes accessed per row activation
system.mem_ctrls1.bytesPerActivate::640-767          109      0.51%     96.83% # Bytes accessed per row activation
system.mem_ctrls1.bytesPerActivate::768-895          111      0.52%     97.35% # Bytes accessed per row activation
system.mem_ctrls1.bytesPerActivate::896-1023          163      0.77%     98.12% # Bytes accessed per row activation
system.mem_ctrls1.bytesPerActivate::1024-1151          398      1.88%    100.00% # Bytes accessed per row activation
system.mem_ctrls1.bytesPerActivate::total        21196                       # Bytes accessed per row activation
system.mem_ctrls1.rdPerTurnAround::samples          317                       # Reads before turning the bus around for writes
system.mem_ctrls1.rdPerTurnAround::mean    139.034700                       # Reads before turning the bus around for writes
system.mem_ctrls1.rdPerTurnAround::stdev  1586.594973                       # Reads before turning the bus around for writes
system.mem_ctrls1.rdPerTurnAround::0-1023          316     99.68%     99.68% # Reads before turning the bus around for writes
system.mem_ctrls1.rdPerTurnAround::27648-28671            1      0.32%    100.00% # Reads before turning the bus around for writes
system.mem_ctrls1.rdPerTurnAround::total          317                       # Reads before turning the bus around for writes
system.mem_ctrls1.wrPerTurnAround::samples          317                       # Writes before turning the bus around for reads
system.mem_ctrls1.wrPerTurnAround::mean     17.861199                       # Writes before turning the bus around for reads
system.mem_ctrls1.wrPerTurnAround::gmean    17.849525                       # Writes before turning the bus around for reads
system.mem_ctrls1.wrPerTurnAround::stdev     0.631185                       # Writes before turning the bus around for reads
system.mem_ctrls1.wrPerTurnAround::16              28      8.83%      8.83% # Writes before turning the bus around for reads
system.mem_ctrls1.wrPerTurnAround::17               3      0.95%      9.78% # Writes before turning the bus around for reads
system.mem_ctrls1.wrPerTurnAround::18             272     85.80%     95.58% # Writes before turning the bus around for reads
system.mem_ctrls1.wrPerTurnAround::19              13      4.10%     99.68% # Writes before turning the bus around for reads
system.mem_ctrls1.wrPerTurnAround::20               1      0.32%    100.00% # Writes before turning the bus around for reads
system.mem_ctrls1.wrPerTurnAround::total          317                       # Writes before turning the bus around for reads
system.mem_ctrls1.totQLat                  3767228729                       # Total ticks spent queuing
system.mem_ctrls1.totMemAccLat             4594047479                       # Total ticks spent from burst creation until serviced by the DRAM
system.mem_ctrls1.totBusLat                 220485000                       # Total ticks spent in databus transfers
system.mem_ctrls1.avgQLat                    85430.50                       # Average queueing delay per DRAM burst
system.mem_ctrls1.avgBusLat                   5000.00                       # Average bus latency per DRAM burst
system.mem_ctrls1.avgMemAccLat              104180.50                       # Average memory access latency per DRAM burst
system.mem_ctrls1.avgRdBW                        2.81                       # Average DRAM read bandwidth in MiByte/s
system.mem_ctrls1.avgWrBW                        0.36                       # Average achieved write bandwidth in MiByte/s
system.mem_ctrls1.avgRdBWSys                     2.85                       # Average system read bandwidth in MiByte/s
system.mem_ctrls1.avgWrBWSys                     0.36                       # Average system write bandwidth in MiByte/s
system.mem_ctrls1.peakBW                     12800.00                       # Theoretical peak bandwidth in MiByte/s
system.mem_ctrls1.busUtil                        0.02                       # Data bus utilization in percentage
system.mem_ctrls1.busUtilRead                    0.02                       # Data bus utilization in percentage for reads
system.mem_ctrls1.busUtilWrite                   0.00                       # Data bus utilization in percentage for writes
system.mem_ctrls1.avgRdQLen                      1.00                       # Average read queue length when enqueuing
system.mem_ctrls1.avgWrQLen                     13.87                       # Average write queue length when enqueuing
system.mem_ctrls1.readRowHits                   27513                       # Number of row buffer hits during reads
system.mem_ctrls1.writeRowHits                   1049                       # Number of row buffer hits during writes
system.mem_ctrls1.readRowHitRate                62.39                       # Row buffer hit rate for reads
system.mem_ctrls1.writeRowHitRate               18.43                       # Row buffer hit rate for writes
system.mem_ctrls1.avgGap                  19903336.69                       # Average gap between requests
system.mem_ctrls1.pageHitRate                   57.37                       # Row buffer hit rate, read and write combined
system.mem_ctrls1_0.actEnergy                69450780                       # Energy for activate commands per rank (pJ)
system.mem_ctrls1_0.preEnergy                36913965                       # Energy for precharge commands per rank (pJ)
system.mem_ctrls1_0.readEnergy              151489380                       # Energy for read commands per rank (pJ)
system.mem_ctrls1_0.writeEnergy              13436280                       # Energy for write commands per rank (pJ)
system.mem_ctrls1_0.refreshEnergy        6476461680.000002                       # Energy for refresh commands per rank (pJ)
system.mem_ctrls1_0.actBackEnergy          2073446250                       # Energy for active background per rank (pJ)
system.mem_ctrls1_0.preBackEnergy           392820480                       # Energy for precharge background per rank (pJ)
system.mem_ctrls1_0.actPowerDownEnergy    13681839390                       # Energy for active power-down per rank (pJ)
system.mem_ctrls1_0.prePowerDownEnergy     9760280160                       # Energy for precharge power-down per rank (pJ)
system.mem_ctrls1_0.selfRefreshEnergy    228325087980                       # Energy for self refresh per rank (pJ)
system.mem_ctrls1_0.totalEnergy          260983500165                       # Total energy per rank (pJ)
system.mem_ctrls1_0.averagePower           259.514062                       # Core power per rank (mW)
system.mem_ctrls1_0.totalIdleTime        1000063367756                       # Total Idle time Per DRAM Rank
system.mem_ctrls1_0.memoryStateTime::IDLE    797649933                       # Time in different power states
system.mem_ctrls1_0.memoryStateTime::REF   2757254000                       # Time in different power states
system.mem_ctrls1_0.memoryStateTime::SREF 944665760564                       # Time in different power states
system.mem_ctrls1_0.memoryStateTime::PRE_PDN  25417434250                       # Time in different power states
system.mem_ctrls1_0.memoryStateTime::ACT   2020054763                       # Time in different power states
system.mem_ctrls1_0.memoryStateTime::ACT_PDN  30004113554                       # Time in different power states
system.mem_ctrls1_1.actEnergy                81895800                       # Energy for activate commands per rank (pJ)
system.mem_ctrls1_1.preEnergy                43524855                       # Energy for precharge commands per rank (pJ)
system.mem_ctrls1_1.readEnergy              163363200                       # Energy for read commands per rank (pJ)
system.mem_ctrls1_1.writeEnergy              16119360                       # Energy for write commands per rank (pJ)
system.mem_ctrls1_1.refreshEnergy        7680541440.000002                       # Energy for refresh commands per rank (pJ)
system.mem_ctrls1_1.actBackEnergy          2278707810                       # Energy for active background per rank (pJ)
system.mem_ctrls1_1.preBackEnergy           466108320                       # Energy for precharge background per rank (pJ)
system.mem_ctrls1_1.actPowerDownEnergy    16240664580                       # Energy for active power-down per rank (pJ)
system.mem_ctrls1_1.prePowerDownEnergy    11856570720                       # Energy for precharge power-down per rank (pJ)
system.mem_ctrls1_1.selfRefreshEnergy    225784715100                       # Energy for self refresh per rank (pJ)
system.mem_ctrls1_1.totalEnergy          264615473715                       # Total energy per rank (pJ)
system.mem_ctrls1_1.averagePower           263.125586                       # Core power per rank (mW)
system.mem_ctrls1_1.totalIdleTime        999438328480                       # Total Idle time Per DRAM Rank
system.mem_ctrls1_1.memoryStateTime::IDLE    947047790                       # Time in different power states
system.mem_ctrls1_1.memoryStateTime::REF   3269624000                       # Time in different power states
system.mem_ctrls1_1.memoryStateTime::SREF 932952045763                       # Time in different power states
system.mem_ctrls1_1.memoryStateTime::PRE_PDN  30876537092                       # Time in different power states
system.mem_ctrls1_1.memoryStateTime::ACT   2001469993                       # Time in different power states
system.mem_ctrls1_1.memoryStateTime::ACT_PDN  35615542426                       # Time in different power states
system.pwrStateResidencyTicks::UNDEFINED 176556946388931                       # Cumulative time (in ticks) in various power states
system.cpu.branchPred.lookups                       4                       # Number of BP lookups
system.cpu.branchPred.condPredicted                 2                       # Number of conditional branches predicted
system.cpu.branchPred.condIncorrect                 1                       # Number of conditional branches incorrect
system.cpu.branchPred.BTBLookups                    2                       # Number of BTB lookups
system.cpu.branchPred.BTBHits                       0                       # Number of BTB hits
system.cpu.branchPred.BTBCorrect                    0                       # Number of correct BTB predictions (this stat may not work properly.
system.cpu.branchPred.BTBHitPct              0.000000                       # BTB Hit Percentage
system.cpu.branchPred.usedRAS                       0                       # Number of times the RAS was used to get a target.
system.cpu.branchPred.RASInCorrect                  0                       # Number of incorrect RAS predictions.
system.cpu.branchPred.indirectLookups               0                       # Number of indirect predictor lookups.
system.cpu.branchPred.indirectHits                  0                       # Number of indirect target hits.
system.cpu.branchPred.indirectMisses                0                       # Number of indirect misses.
system.cpu.branchPredindirectMispredicted            0                       # Number of mispredicted indirect branches.
system.cpu_voltage_domain.voltage                   1                       # Voltage in Volts
system.cpu_clk_domain.clock                       333                       # Clock period in ticks
system.cpu.dtb.fetch_hits                           0                       # ITB hits
system.cpu.dtb.fetch_misses                         0                       # ITB misses
system.cpu.dtb.fetch_acv                            0                       # ITB acv
system.cpu.dtb.fetch_accesses                       0                       # ITB accesses
system.cpu.dtb.read_hits                           10                       # DTB read hits
system.cpu.dtb.read_misses                          0                       # DTB read misses
system.cpu.dtb.read_acv                             0                       # DTB read access violations
system.cpu.dtb.read_accesses                       10                       # DTB read accesses
system.cpu.dtb.write_hits                           0                       # DTB write hits
system.cpu.dtb.write_misses                         0                       # DTB write misses
system.cpu.dtb.write_acv                            0                       # DTB write access violations
system.cpu.dtb.write_accesses                       0                       # DTB write accesses
system.cpu.dtb.data_hits                           10                       # DTB hits
system.cpu.dtb.data_misses                          0                       # DTB misses
system.cpu.dtb.data_acv                             0                       # DTB access violations
system.cpu.dtb.data_accesses                       10                       # DTB accesses
system.cpu.itb.fetch_hits                           5                       # ITB hits
system.cpu.itb.fetch_misses                         0                       # ITB misses
system.cpu.itb.fetch_acv                            0                       # ITB acv
system.cpu.itb.fetch_accesses                       5                       # ITB accesses
system.cpu.itb.read_hits                            0                       # DTB read hits
system.cpu.itb.read_misses                          0                       # DTB read misses
system.cpu.itb.read_acv                             0                       # DTB read access violations
system.cpu.itb.read_accesses                        0                       # DTB read accesses
system.cpu.itb.write_hits                           0                       # DTB write hits
system.cpu.itb.write_misses                         0                       # DTB write misses
system.cpu.itb.write_acv                            0                       # DTB write access violations
system.cpu.itb.write_accesses                       0                       # DTB write accesses
system.cpu.itb.data_hits                            0                       # DTB hits
system.cpu.itb.data_misses                          0                       # DTB misses
system.cpu.itb.data_acv                             0                       # DTB access violations
system.cpu.itb.data_accesses                        0                       # DTB accesses
system.cpu.workload.num_syscalls                    0                       # Number of system calls
system.cpu.pwrStateResidencyTicks::ON    1005662267064                       # Cumulative time (in ticks) in various power states
system.cpu.numCycles                              567                       # number of cpu cycles simulated
system.cpu.numWorkItemsStarted                      0                       # number of work items this cpu started
system.cpu.numWorkItemsCompleted                    0                       # number of work items this cpu completed
system.cpu.fetch.icacheStallCycles                 47                       # Number of cycles fetch is stalled on an Icache miss
system.cpu.fetch.Insts                             32                       # Number of instructions fetch has processed
system.cpu.fetch.Branches                           4                       # Number of branches that fetch encountered
system.cpu.fetch.Cycles                             4                       # Number of cycles fetch has run and was not squashing or blocked
system.cpu.fetch.SquashCycles                       5                       # Number of cycles fetch has spent squashing
system.cpu.fetch.PendingDrainCycles                 7                       # Number of cycles fetch has spent waiting on pipes to drain
system.cpu.fetch.CacheLines                         5                       # Number of cache lines fetched
system.cpu.fetch.IcacheSquashes                     3                       # Number of outstanding Icache misses that were squashed
system.cpu.fetch.rateDist::samples                 60                       # Number of instructions fetched each cycle (Total)
system.cpu.fetch.rateDist::mean              0.533333                       # Number of instructions fetched each cycle (Total)
system.cpu.fetch.rateDist::stdev             2.012391                       # Number of instructions fetched each cycle (Total)
system.cpu.fetch.rateDist::underflows               0      0.00%      0.00% # Number of instructions fetched each cycle (Total)
system.cpu.fetch.rateDist::0                       56     93.33%     93.33% # Number of instructions fetched each cycle (Total)
system.cpu.fetch.rateDist::1                        0      0.00%     93.33% # Number of instructions fetched each cycle (Total)
system.cpu.fetch.rateDist::2                        0      0.00%     93.33% # Number of instructions fetched each cycle (Total)
system.cpu.fetch.rateDist::3                        0      0.00%     93.33% # Number of instructions fetched each cycle (Total)
system.cpu.fetch.rateDist::4                        0      0.00%     93.33% # Number of instructions fetched each cycle (Total)
system.cpu.fetch.rateDist::5                        0      0.00%     93.33% # Number of instructions fetched each cycle (Total)
system.cpu.fetch.rateDist::6                        0      0.00%     93.33% # Number of instructions fetched each cycle (Total)
system.cpu.fetch.rateDist::7                        0      0.00%     93.33% # Number of instructions fetched each cycle (Total)
system.cpu.fetch.rateDist::8                        4      6.67%    100.00% # Number of instructions fetched each cycle (Total)
system.cpu.fetch.rateDist::overflows                0      0.00%    100.00% # Number of instructions fetched each cycle (Total)
system.cpu.fetch.rateDist::min_value                0                       # Number of instructions fetched each cycle (Total)
[...]
system.switch_cpus_1.iq.int_inst_queue_writes    222027702                       # Number of integer instruction queue writes
system.switch_cpus_1.iq.int_inst_queue_wakeup_accesses    205823266                       # Number of integer instruction queue wakeup accesses
system.switch_cpus_1.iq.fp_inst_queue_reads      2763574                       # Number of floating instruction queue reads
system.switch_cpus_1.iq.fp_inst_queue_writes      1435145                       # Number of floating instruction queue writes
system.switch_cpus_1.iq.fp_inst_queue_wakeup_accesses      1371900                       # Number of floating instruction queue wakeup accesses
system.switch_cpus_1.iq.int_alu_accesses    217678985                       # Number of integer alu accesses
system.switch_cpus_1.iq.fp_alu_accesses       1385564                       # Number of floating point alu accesses
system.switch_cpus_1.iew.lsq.thread0.forwLoads      2865186                       # Number of loads that had data forwarded from stores
system.switch_cpus_1.iew.lsq.thread0.invAddrLoads            0                       # Number of loads ignored due to an invalid address
system.switch_cpus_1.iew.lsq.thread0.squashedLoads      2559664                       # Number of loads squashed
system.switch_cpus_1.iew.lsq.thread0.ignoredResponses         6699                       # Number of memory responses ignored because the instruction is squashed
system.switch_cpus_1.iew.lsq.thread0.memOrderViolation        15812                       # Number of memory ordering violations
system.switch_cpus_1.iew.lsq.thread0.squashedStores       574855                       # Number of stores squashed
system.switch_cpus_1.iew.lsq.thread0.invAddrSwpfs            0                       # Number of software prefetches ignored due to an invalid address
system.switch_cpus_1.iew.lsq.thread0.blockedLoads            0                       # Number of blocked loads due to partial load-store forwarding
system.switch_cpus_1.iew.lsq.thread0.rescheduledLoads         1086                       # Number of loads that were rescheduled
system.switch_cpus_1.iew.lsq.thread0.cacheBlocked       495515                       # Number of times an access to memory failed due to the cache being blocked
system.switch_cpus_1.iew.iewIdleCycles              0                       # Number of cycles IEW is idle
system.switch_cpus_1.iew.iewSquashCycles       312340                       # Number of cycles IEW is squashing
system.switch_cpus_1.iew.iewBlockCycles       1479299                       # Number of cycles IEW is blocking
system.switch_cpus_1.iew.iewUnblockCycles      1490585                       # Number of cycles IEW is unblocking
system.switch_cpus_1.iew.iewDispatchedInsts    212903206                       # Number of instructions dispatched to IQ
system.switch_cpus_1.iew.iewDispSquashedInsts        56579                       # Number of squashed instructions skipped by dispatch
system.switch_cpus_1.iew.iewDispLoadInsts     72227139                       # Number of dispatched load instructions
system.switch_cpus_1.iew.iewDispStoreInsts     13485277                       # Number of dispatched store instructions
system.switch_cpus_1.iew.iewDispNonSpecInsts            0                       # Number of dispatched non-speculative instructions
system.switch_cpus_1.iew.iewIQFullEvents        10112                       # Number of times the IQ has become full, causing a stall
system.switch_cpus_1.iew.iewLSQFullEvents      1484339                       # Number of times the LSQ has become full, causing a stall
system.switch_cpus_1.iew.memOrderViolationEvents        15812                       # Number of memory order violations
system.switch_cpus_1.iew.predictedTakenIncorrect       215125                       # Number of branches that were predicted taken incorrectly
system.switch_cpus_1.iew.predictedNotTakenIncorrect        80695                       # Number of branches that were predicted not taken incorrectly
system.switch_cpus_1.iew.branchMispredicts       295820                       # Number of branch mispredicts detected at execute
system.switch_cpus_1.iew.iewExecutedInsts    208271515                       # Number of executed instructions
system.switch_cpus_1.iew.iewExecLoadInsts     72030997                       # Number of load instructions executed
system.switch_cpus_1.iew.iewExecSquashedInsts       536782                       # Number of squashed instructions skipped in execute
system.switch_cpus_1.iew.exec_swp                   0                       # number of swp insts executed
system.switch_cpus_1.iew.exec_nop             1179551                       # number of nop insts executed
system.switch_cpus_1.iew.exec_refs           85152943                       # number of memory reference insts executed
system.switch_cpus_1.iew.exec_branches       15124014                       # Number of branches executed
system.switch_cpus_1.iew.exec_stores         13121946                       # Number of stores executed
system.switch_cpus_1.iew.exec_rate           2.752020                       # Inst execution rate
system.switch_cpus_1.iew.wb_sent            207479050                       # cumulative count of insts sent to commit
system.switch_cpus_1.iew.wb_count           207195166                       # cumulative count of insts written-back
system.switch_cpus_1.iew.wb_producers       133749380                       # num instructions producing a value
system.switch_cpus_1.iew.wb_consumers       163138233                       # num instructions consuming a value
system.switch_cpus_1.iew.wb_rate             2.737797                       # insts written-back per cycle
system.switch_cpus_1.iew.wb_fanout           0.819853                       # average fanout of values written-back
system.switch_cpus_1.commit.commitSquashedInsts     11321764                       # The number of squashed insts skipped by commit
system.switch_cpus_1.commit.branchMispredicts       272400                       # The number of times a branch was mispredicted
system.switch_cpus_1.commit.committed_per_cycle::samples     73863527                       # Number of insts commited each cycle
system.switch_cpus_1.commit.committed_per_cycle::mean     2.722123                       # Number of insts commited each cycle
system.switch_cpus_1.commit.committed_per_cycle::stdev     3.176520                       # Number of insts commited each cycle
system.switch_cpus_1.commit.committed_per_cycle::underflows            0      0.00%      0.00% # Number of insts commited each cycle
system.switch_cpus_1.commit.committed_per_cycle::0     31288570     42.36%     42.36% # Number of insts commited each cycle
system.switch_cpus_1.commit.committed_per_cycle::1      9300104     12.59%     54.95% # Number of insts commited each cycle
system.switch_cpus_1.commit.committed_per_cycle::2      4772822      6.46%     61.41% # Number of insts commited each cycle
system.switch_cpus_1.commit.committed_per_cycle::3      3531623      4.78%     66.19% # Number of insts commited each cycle
system.switch_cpus_1.commit.committed_per_cycle::4      2690184      3.64%     69.84% # Number of insts commited each cycle
system.switch_cpus_1.commit.committed_per_cycle::5      3504361      4.74%     74.58% # Number of insts commited each cycle
system.switch_cpus_1.commit.committed_per_cycle::6      1556283      2.11%     76.69% # Number of insts commited each cycle
system.switch_cpus_1.commit.committed_per_cycle::7      3751911      5.08%     81.77% # Number of insts commited each cycle
system.switch_cpus_1.commit.committed_per_cycle::8     13467669     18.23%    100.00% # Number of insts commited each cycle
system.switch_cpus_1.commit.committed_per_cycle::overflows            0      0.00%    100.00% # Number of insts commited each cycle
system.switch_cpus_1.commit.committed_per_cycle::min_value            0                       # Number of insts commited each cycle
system.switch_cpus_1.commit.committed_per_cycle::max_value            8                       # Number of insts commited each cycle
system.switch_cpus_1.commit.committed_per_cycle::total     73863527                       # Number of insts commited each cycle
system.switch_cpus_1.commit.committedInsts    201065585                       # Number of instructions committed
system.switch_cpus_1.commit.committedOps    201065585                       # Number of ops (including micro ops) committed
system.switch_cpus_1.commit.swp_count               0                       # Number of s/w prefetches committed
system.switch_cpus_1.commit.refs             82577871                       # Number of memory references committed
system.switch_cpus_1.commit.loads            69667449                       # Number of loads committed
system.switch_cpus_1.commit.membars                 0                       # Number of memory barriers committed
system.switch_cpus_1.commit.branches         14245931                       # Number of branches committed
system.switch_cpus_1.commit.fp_insts          1340565                       # Number of committed floating point instructions.
system.switch_cpus_1.commit.int_insts       198509910                       # Number of committed integer instructions.
system.switch_cpus_1.commit.function_calls      2072159                       # Number of function calls committed.
system.switch_cpus_1.commit.op_class_0::No_OpClass      1225977      0.61%      0.61% # Class of committed instruction
system.switch_cpus_1.commit.op_class_0::IntAlu    115514890     57.45%     58.06% # Class of committed instruction
system.switch_cpus_1.commit.op_class_0::IntMult       939115      0.47%     58.53% # Class of committed instruction
system.switch_cpus_1.commit.op_class_0::IntDiv            0      0.00%     58.53% # Class of committed instruction
system.switch_cpus_1.commit.op_class_0::FloatAdd       455806      0.23%     58.75% # Class of committed instruction
system.switch_cpus_1.commit.op_class_0::FloatCmp        10815      0.01%     58.76% # Class of committed instruction
system.switch_cpus_1.commit.op_class_0::FloatCvt       252849      0.13%     58.89% # Class of committed instruction
system.switch_cpus_1.commit.op_class_0::FloatMult         8058      0.00%     58.89% # Class of committed instruction
system.switch_cpus_1.commit.op_class_0::FloatMultAcc            0      0.00%     58.89% # Class of committed instruction
system.switch_cpus_1.commit.op_class_0::FloatDiv        80200      0.04%     58.93% # Class of committed instruction
system.switch_cpus_1.commit.op_class_0::FloatMisc            0      0.00%     58.93% # Class of committed instruction
system.switch_cpus_1.commit.op_class_0::FloatSqrt            4      0.00%     58.93% # Class of committed instruction
system.switch_cpus_1.commit.op_class_0::SimdAdd            0      0.00%     58.93% # Class of committed instruction
system.switch_cpus_1.commit.op_class_0::SimdAddAcc            0      0.00%     58.93% # Class of committed instruction
system.switch_cpus_1.commit.op_class_0::SimdAlu            0      0.00%     58.93% # Class of committed instruction
system.switch_cpus_1.commit.op_class_0::SimdCmp            0      0.00%     58.93% # Class of committed instruction
system.switch_cpus_1.commit.op_class_0::SimdCvt            0      0.00%     58.93% # Class of committed instruction
system.switch_cpus_1.commit.op_class_0::SimdMisc            0      0.00%     58.93% # Class of committed instruction
system.switch_cpus_1.commit.op_class_0::SimdMult            0      0.00%     58.93% # Class of committed instruction
system.switch_cpus_1.commit.op_class_0::SimdMultAcc            0      0.00%     58.93% # Class of committed instruction
system.switch_cpus_1.commit.op_class_0::SimdShift            0      0.00%     58.93% # Class of committed instruction
system.switch_cpus_1.commit.op_class_0::SimdShiftAcc            0      0.00%     58.93% # Class of committed instruction
system.switch_cpus_1.commit.op_class_0::SimdSqrt            0      0.00%     58.93% # Class of committed instruction
system.switch_cpus_1.commit.op_class_0::SimdFloatAdd            0      0.00%     58.93% # Class of committed instruction
system.switch_cpus_1.commit.op_class_0::SimdFloatAlu            0      0.00%     58.93% # Class of committed instruction
system.switch_cpus_1.commit.op_class_0::SimdFloatCmp            0      0.00%     58.93% # Class of committed instruction
system.switch_cpus_1.commit.op_class_0::SimdFloatCvt            0      0.00%     58.93% # Class of committed instruction
system.switch_cpus_1.commit.op_class_0::SimdFloatDiv            0      0.00%     58.93% # Class of committed instruction
system.switch_cpus_1.commit.op_class_0::SimdFloatMisc            0      0.00%     58.93% # Class of committed instruction
system.switch_cpus_1.commit.op_class_0::SimdFloatMult            0      0.00%     58.93% # Class of committed instruction
system.switch_cpus_1.commit.op_class_0::SimdFloatMultAcc            0      0.00%     58.93% # Class of committed instruction
system.switch_cpus_1.commit.op_class_0::SimdFloatSqrt            0      0.00%     58.93% # Class of committed instruction
system.switch_cpus_1.commit.op_class_0::MemRead     69394564     34.51%     93.44% # Class of committed instruction
system.switch_cpus_1.commit.op_class_0::MemWrite     12650474      6.29%     99.73% # Class of committed instruction
system.switch_cpus_1.commit.op_class_0::FloatMemRead       272885      0.14%     99.87% # Class of committed instruction
system.switch_cpus_1.commit.op_class_0::FloatMemWrite       259948      0.13%    100.00% # Class of committed instruction
system.switch_cpus_1.commit.op_class_0::IprAccess            0      0.00%    100.00% # Class of committed instruction
system.switch_cpus_1.commit.op_class_0::InstPrefetch            0      0.00%    100.00% # Class of committed instruction
system.switch_cpus_1.commit.op_class_0::total    201065585                       # Class of committed instruction
system.switch_cpus_1.commit.bw_lim_events     13467669                       # number cycles where commit BW limit reached
system.switch_cpus_1.rob.rob_reads          272418076                       # The number of ROB reads
system.switch_cpus_1.rob.rob_writes         426348783                       # The number of ROB writes
system.switch_cpus_1.timesIdled                 13928                       # Number of times that the entire CPU went into an idle state and unscheduled itself
system.switch_cpus_1.idleCycles                243915                       # Total number of cycles that the CPU has spent unscheduled due to idling
system.switch_cpus_1.committedInsts         200000000                       # Number of Instructions Simulated
system.switch_cpus_1.committedOps           200000000                       # Number of Ops (including micro ops) Simulated
system.switch_cpus_1.cpi                     0.378398                       # CPI: Cycles Per Instruction
system.switch_cpus_1.cpi_total               0.378398                       # CPI: Total CPI of All Threads
system.switch_cpus_1.ipc                     2.642723                       # IPC: Instructions Per Cycle
system.switch_cpus_1.ipc_total               2.642723                       # IPC: Total IPC of All Threads
system.switch_cpus_1.int_regfile_reads      304021985                       # number of integer regfile reads
system.switch_cpus_1.int_regfile_writes     180080161                       # number of integer regfile writes
system.switch_cpus_1.fp_regfile_reads          984286                       # number of floating regfile reads
system.switch_cpus_1.fp_regfile_writes         922599                       # number of floating regfile writes
system.switch_cpus_1.misc_regfile_reads        167188                       # number of misc regfile reads
system.switch_cpus_1.misc_regfile_writes        80196                       # number of misc regfile writes
system.tol3bus.snoop_filter.tot_requests      3293710                       # Total number of requests made to the snoop filter.
system.tol3bus.snoop_filter.hit_single_requests      1644568                       # Number of requests hitting in the snoop filter with a single holder of the requested data.
system.tol3bus.snoop_filter.hit_multi_requests            0                       # Number of requests hitting in the snoop filter with multiple (>1) holders of the requested data.
system.tol3bus.snoop_filter.tot_snoops            142                       # Total number of snoops made to the snoop filter.
system.tol3bus.snoop_filter.hit_single_snoops          142                       # Number of snoops hitting in the snoop filter with a single holder of the requested data.
system.tol3bus.snoop_filter.hit_multi_snoops            0                       # Number of snoops hitting in the snoop filter with multiple (>1) holders of the requested data.
system.tol3bus.pwrStateResidencyTicks::UNDEFINED 176556946388931                       # Cumulative time (in ticks) in various power states
system.tol3bus.trans_dist::ReadResp            979028                       # Transaction distribution
system.tol3bus.trans_dist::WritebackDirty      1273158                       # Transaction distribution
system.tol3bus.trans_dist::CleanEvict          395063                       # Transaction distribution
system.tol3bus.trans_dist::UpgradeReq               3                       # Transaction distribution
system.tol3bus.trans_dist::UpgradeResp              3                       # Transaction distribution
system.tol3bus.trans_dist::ReadExReq           670114                       # Transaction distribution
system.tol3bus.trans_dist::ReadExResp          670114                       # Transaction distribution
system.tol3bus.trans_dist::ReadSharedReq       979028                       # Transaction distribution
system.tol3bus.pkt_count_system.cpu.l2.mem_side::system.l3.cpu_side      4942855                       # Packet count per connected master and slave (bytes)
system.tol3bus.pkt_size_system.cpu.l2.mem_side::system.l3.cpu_side    186301440                       # Cumulative packet size per connected master and slave (bytes)
system.tol3bus.snoops                           23656                       # Total snoops (count)
system.tol3bus.snoopTraffic                    725760                       # Total snoop traffic (bytes)
system.tol3bus.snoop_fanout::samples          1672801                       # Request fanout histogram
system.tol3bus.snoop_fanout::mean            0.000085                       # Request fanout histogram
system.tol3bus.snoop_fanout::stdev           0.009213                       # Request fanout histogram
system.tol3bus.snoop_fanout::underflows             0      0.00%      0.00% # Request fanout histogram
system.tol3bus.snoop_fanout::0                1672659     99.99%     99.99% # Request fanout histogram
system.tol3bus.snoop_fanout::1                    142      0.01%    100.00% # Request fanout histogram
system.tol3bus.snoop_fanout::overflows              0      0.00%    100.00% # Request fanout histogram
system.tol3bus.snoop_fanout::min_value              0                       # Request fanout histogram
system.tol3bus.snoop_fanout::max_value              1                       # Request fanout histogram
system.tol3bus.snoop_fanout::total            1672801                       # Request fanout histogram
system.tol3bus.reqLayer0.occupancy         1516990824                       # Layer occupancy (ticks)
system.tol3bus.reqLayer0.utilization              0.2                       # Layer utilization (%)
system.tol3bus.respLayer0.occupancy        1098329571                       # Layer occupancy (ticks)
system.tol3bus.respLayer0.utilization             0.1                       # Layer utilization (%)

---------- End Simulation Statistics   ----------
