
---------- Begin Simulation Statistics ----------
sim_seconds                                  1.019441                       # Number of seconds simulated
sim_ticks                                1019441266938                       # Number of ticks simulated
final_tick                               176570725388805                       # Number of ticks from beginning of simulation (restored from checkpoints and never reset)
sim_freq                                 1000000000000                       # Frequency of simulated ticks
host_inst_rate                                 698131                       # Simulator instruction rate (inst/s)
host_op_rate                                   698131                       # Simulator op (including micro ops) rate (op/s)
host_tick_rate                              593085933                       # Simulator tick rate (ticks/s)
host_mem_usage                                2388828                       # Number of bytes of host memory used
host_seconds                                  1718.88                       # Real time elapsed on the host
sim_insts                                  1200000005                       # Number of instructions simulated
sim_ops                                    1200000005                       # Number of ops (including micro ops) simulated
system.voltage_domain.voltage                       1                       # Voltage in Volts
system.clk_domain.clock                          1000                       # Clock period in ticks
system.mem_ctrls0.pwrStateResidencyTicks::UNDEFINED 176570725388805                       # Cumulative time (in ticks) in various power states
system.mem_ctrls0.bytes_read::cpu.inst             64                       # Number of bytes read from this memory
system.mem_ctrls0.bytes_read::cpu.data            192                       # Number of bytes read from this memory
system.mem_ctrls0.bytes_read::switch_cpus.inst        48384                       # Number of bytes read from this memory
system.mem_ctrls0.bytes_read::switch_cpus.data      2463488                       # Number of bytes read from this memory
system.mem_ctrls0.bytes_read::switch_cpus_1.inst        12544                       # Number of bytes read from this memory
system.mem_ctrls0.bytes_read::switch_cpus_1.data       459904                       # Number of bytes read from this memory
system.mem_ctrls0.bytes_read::total           2984576                       # Number of bytes read from this memory
system.mem_ctrls0.bytes_inst_read::cpu.inst           64                       # Number of instructions bytes read from this memory
system.mem_ctrls0.bytes_inst_read::switch_cpus.inst        48384                       # Number of instructions bytes read from this memory
system.mem_ctrls0.bytes_inst_read::switch_cpus_1.inst        12544                       # Number of instructions bytes read from this memory
system.mem_ctrls0.bytes_inst_read::total        60992                       # Number of instructions bytes read from this memory
system.mem_ctrls0.bytes_written::writebacks       466240                       # Number of bytes written to this memory
system.mem_ctrls0.bytes_written::total         466240                       # Number of bytes written to this memory
system.mem_ctrls0.num_reads::cpu.inst               1                       # Number of read requests responded to by this memory
system.mem_ctrls0.num_reads::cpu.data               3                       # Number of read requests responded to by this memory
system.mem_ctrls0.num_reads::switch_cpus.inst          756                       # Number of read requests responded to by this memory
system.mem_ctrls0.num_reads::switch_cpus.data        38492                       # Number of read requests responded to by this memory
system.mem_ctrls0.num_reads::switch_cpus_1.inst          196                       # Number of read requests responded to by this memory
system.mem_ctrls0.num_reads::switch_cpus_1.data         7186                       # Number of read requests responded to by this memory
system.mem_ctrls0.num_reads::total              46634                       # Number of read requests responded to by this memory
system.mem_ctrls0.num_writes::writebacks         7285                       # Number of write requests responded to by this memory
system.mem_ctrls0.num_writes::total              7285                       # Number of write requests responded to by this memory
system.mem_ctrls0.bw_read::cpu.inst                63                       # Total read bandwidth from this memory (bytes/s)
system.mem_ctrls0.bw_read::cpu.data               188                       # Total read bandwidth from this memory (bytes/s)
system.mem_ctrls0.bw_read::switch_cpus.inst        47461                       # Total read bandwidth from this memory (bytes/s)
system.mem_ctrls0.bw_read::switch_cpus.data      2416508                       # Total read bandwidth from this memory (bytes/s)
system.mem_ctrls0.bw_read::switch_cpus_1.inst        12305                       # Total read bandwidth from this memory (bytes/s)
system.mem_ctrls0.bw_read::switch_cpus_1.data       451133                       # Total read bandwidth from this memory (bytes/s)
system.mem_ctrls0.bw_read::total              2927659                       # Total read bandwidth from this memory (bytes/s)
system.mem_ctrls0.bw_inst_read::cpu.inst           63                       # Instruction read bandwidth from this memory (bytes/s)
system.mem_ctrls0.bw_inst_read::switch_cpus.inst        47461                       # Instruction read bandwidth from this memory (bytes/s)
system.mem_ctrls0.bw_inst_read::switch_cpus_1.inst        12305                       # Instruction read bandwidth from this memory (bytes/s)
system.mem_ctrls0.bw_inst_read::total           59829                       # Instruction read bandwidth from this memory (bytes/s)
system.mem_ctrls0.bw_write::writebacks         457349                       # Write bandwidth from this memory (bytes/s)
system.mem_ctrls0.bw_write::total              457349                       # Write bandwidth from this memory (bytes/s)
system.mem_ctrls0.bw_total::writebacks         457349                       # Total bandwidth to/from this memory (bytes/s)
system.mem_ctrls0.bw_total::cpu.inst               63                       # Total bandwidth to/from this memory (bytes/s)
system.mem_ctrls0.bw_total::cpu.data              188                       # Total bandwidth to/from this memory (bytes/s)
system.mem_ctrls0.bw_total::switch_cpus.inst        47461                       # Total bandwidth to/from this memory (bytes/s)
system.mem_ctrls0.bw_total::switch_cpus.data      2416508                       # Total bandwidth to/from this memory (bytes/s)
system.mem_ctrls0.bw_total::switch_cpus_1.inst        12305                       # Total bandwidth to/from this memory (bytes/s)
system.mem_ctrls0.bw_total::switch_cpus_1.data       451133                       # Total bandwidth to/from this memory (bytes/s)
system.mem_ctrls0.bw_total::total             3385007                       # Total bandwidth to/from this memory (bytes/s)
system.mem_ctrls0.readReqs                      46634                       # Number of read requests accepted
system.mem_ctrls0.writeReqs                      7285                       # Number of write requests accepted
system.mem_ctrls0.readBursts                    46634                       # Number of DRAM read bursts, including those serviced by the write queue
system.mem_ctrls0.writeBursts                    7285                       # Number of DRAM write bursts, including those merged in the write queue
system.mem_ctrls0.bytesReadDRAM               2933696                       # Total number of bytes read from DRAM
system.mem_ctrls0.bytesReadWrQ                  50880                       # Total number of bytes read from write queue
system.mem_ctrls0.bytesWritten                 464960                       # Total number of bytes written to DRAM
system.mem_ctrls0.bytesReadSys                2984576                       # Total read bytes from the system interface side
system.mem_ctrls0.bytesWrittenSys              466240                       # Total written bytes from the system interface side
system.mem_ctrls0.servicedByWrQ                   795                       # Number of DRAM read bursts serviced by the write queue
system.mem_ctrls0.mergedWrBursts                    4                       # Number of DRAM write bursts merged with an existing one
system.mem_ctrls0.neitherReadNorWriteReqs            0                       # Number of requests that are neither read nor write
system.mem_ctrls0.perBankRdBursts::0             2997                       # Per bank write bursts
system.mem_ctrls0.perBankRdBursts::1             2400                       # Per bank write bursts
system.mem_ctrls0.perBankRdBursts::2             2554                       # Per bank write bursts
system.mem_ctrls0.perBankRdBursts::3             2729                       # Per bank write bursts
system.mem_ctrls0.perBankRdBursts::4             2587                       # Per bank write bursts
system.mem_ctrls0.perBankRdBursts::5             2646                       # Per bank write bursts
system.mem_ctrls0.perBankRdBursts::6             3262                       # Per bank write bursts
system.mem_ctrls0.perBankRdBursts::7             2897                       # Per bank write bursts
system.mem_ctrls0.perBankRdBursts::8             2962                       # Per bank write bursts
system.mem_ctrls0.perBankRdBursts::9             2833                       # Per bank write bursts
system.mem_ctrls0.perBankRdBursts::10            2950                       # Per bank write bursts
system.mem_ctrls0.perBankRdBursts::11            2769                       # Per bank write bursts
system.mem_ctrls0.perBankRdBursts::12            2998                       # Per bank write bursts
system.mem_ctrls0.perBankRdBursts::13            2770                       # Per bank write bursts
system.mem_ctrls0.perBankRdBursts::14            3649                       # Per bank write bursts
system.mem_ctrls0.perBankRdBursts::15            2836                       # Per bank write bursts
system.mem_ctrls0.perBankWrBursts::0              574                       # Per bank write bursts
system.mem_ctrls0.perBankWrBursts::1              246                       # Per bank write bursts
system.mem_ctrls0.perBankWrBursts::2              348                       # Per bank write bursts
system.mem_ctrls0.perBankWrBursts::3              311                       # Per bank write bursts
system.mem_ctrls0.perBankWrBursts::4              404                       # Per bank write bursts
system.mem_ctrls0.perBankWrBursts::5              275                       # Per bank write bursts
system.mem_ctrls0.perBankWrBursts::6              791                       # Per bank write bursts
system.mem_ctrls0.perBankWrBursts::7              504                       # Per bank write bursts
system.mem_ctrls0.perBankWrBursts::8              535                       # Per bank write bursts
system.mem_ctrls0.perBankWrBursts::9              293                       # Per bank write bursts
system.mem_ctrls0.perBankWrBursts::10             362                       # Per bank write bursts
system.mem_ctrls0.perBankWrBursts::11             374                       # Per bank write bursts
system.mem_ctrls0.perBankWrBursts::12             463                       # Per bank write bursts
system.mem_ctrls0.perBankWrBursts::13             318                       # Per bank write bursts
system.mem_ctrls0.perBankWrBursts::14            1029                       # Per bank write bursts
system.mem_ctrls0.perBankWrBursts::15             438                       # Per bank write bursts
system.mem_ctrls0.numRdRetry                        0                       # Number of times read queue was full causing retry
system.mem_ctrls0.numWrRetry                        0                       # Number of times write queue was full causing retry
system.mem_ctrls0.totGap                 1019434501377                       # Total gap between requests
system.mem_ctrls0.readPktSize::0                    0                       # Read request sizes (log2)
system.mem_ctrls0.readPktSize::1                    0                       # Read request sizes (log2)
system.mem_ctrls0.readPktSize::2                    0                       # Read request sizes (log2)
system.mem_ctrls0.readPktSize::3                    0                       # Read request sizes (log2)
system.mem_ctrls0.readPktSize::4                    0                       # Read request sizes (log2)
system.mem_ctrls0.readPktSize::5                    0                       # Read request sizes (log2)
system.mem_ctrls0.readPktSize::6                46634                       # Read request sizes (log2)
system.mem_ctrls0.writePktSize::0                   0                       # Write request sizes (log2)
system.mem_ctrls0.writePktSize::1                   0                       # Write request sizes (log2)
system.mem_ctrls0.writePktSize::2                   0                       # Write request sizes (log2)
system.mem_ctrls0.writePktSize::3                   0                       # Write request sizes (log2)
system.mem_ctrls0.writePktSize::4                   0                       # Write request sizes (log2)
system.mem_ctrls0.writePktSize::5                   0                       # Write request sizes (log2)
system.mem_ctrls0.writePktSize::6                7285                       # Write request sizes (log2)
system.mem_ctrls0.rdQLenPdf::0                  45651                       # What read queue length does an incoming req see
system.mem_ctrls0.rdQLenPdf::1                    185                       # What read queue length does an incoming req see
system.mem_ctrls0.rdQLenPdf::2                      3                       # What read queue length does an incoming req see
system.mem_ctrls0.rdQLenPdf::3                      0                       # What read queue length does an incoming req see
system.mem_ctrls0.rdQLenPdf::4                      0                       # What read queue length does an incoming req see
system.mem_ctrls0.rdQLenPdf::5                      0                       # What read queue length does an incoming req see
system.mem_ctrls0.rdQLenPdf::6                      0                       # What read queue length does an incoming req see
system.mem_ctrls0.rdQLenPdf::7                      0                       # What read queue length does an incoming req see
system.mem_ctrls0.rdQLenPdf::8                      0                       # What read queue length does an incoming req see
system.mem_ctrls0.rdQLenPdf::9                      0                       # What read queue length does an incoming req see
system.mem_ctrls0.rdQLenPdf::10                     0                       # What read queue length does an incoming req see
system.mem_ctrls0.rdQLenPdf::11                     0                       # What read queue length does an incoming req see
system.mem_ctrls0.rdQLenPdf::12                     0                       # What read queue length does an incoming req see
system.mem_ctrls0.rdQLenPdf::13                     0                       # What read queue length does an incoming req see
system.mem_ctrls0.rdQLenPdf::14                     0                       # What read queue length does an incoming req see
system.mem_ctrls0.rdQLenPdf::15                     0                       # What read queue length does an incoming req see
system.mem_ctrls0.rdQLenPdf::16                     0                       # What read queue length does an incoming req see
system.mem_ctrls0.rdQLenPdf::17                     0                       # What read queue length does an incoming req see
system.mem_ctrls0.rdQLenPdf::18                     0                       # What read queue length does an incoming req see
system.mem_ctrls0.rdQLenPdf::19                     0                       # What read queue length does an incoming req see
system.mem_ctrls0.rdQLenPdf::20                     0                       # What read queue length does an incoming req see
system.mem_ctrls0.rdQLenPdf::21                     0                       # What read queue length does an incoming req see
system.mem_ctrls0.rdQLenPdf::22                     0                       # What read queue length does an incoming req see
system.mem_ctrls0.rdQLenPdf::23                     0                       # What read queue length does an incoming req see
system.mem_ctrls0.rdQLenPdf::24                     0                       # What read queue length does an incoming req see
system.mem_ctrls0.rdQLenPdf::25                     0                       # What read queue length does an incoming req see
system.mem_ctrls0.rdQLenPdf::26                     0                       # What read queue length does an incoming req see
system.mem_ctrls0.rdQLenPdf::27                     0                       # What read queue length does an incoming req see
system.mem_ctrls0.rdQLenPdf::28                     0                       # What read queue length does an incoming req see
system.mem_ctrls0.rdQLenPdf::29                     0                       # What read queue length does an incoming req see
system.mem_ctrls0.rdQLenPdf::30                     0                       # What read queue length does an incoming req see
system.mem_ctrls0.rdQLenPdf::31                     0                       # What read queue length does an incoming req see
system.mem_ctrls0.wrQLenPdf::0                      2                       # What write queue length does an incoming req see
system.mem_ctrls0.wrQLenPdf::1                      2                       # What write queue length does an incoming req see
system.mem_ctrls0.wrQLenPdf::2                      2                       # What write queue length does an incoming req see
system.mem_ctrls0.wrQLenPdf::3                      2                       # What write queue length does an incoming req see
system.mem_ctrls0.wrQLenPdf::4                      2                       # What write queue length does an incoming req see
system.mem_ctrls0.wrQLenPdf::5                      2                       # What write queue length does an incoming req see
system.mem_ctrls0.wrQLenPdf::6                      2                       # What write queue length does an incoming req see
system.mem_ctrls0.wrQLenPdf::7                      2                       # What write queue length does an incoming req see
system.mem_ctrls0.wrQLenPdf::8                      2                       # What write queue length does an incoming req see
system.mem_ctrls0.wrQLenPdf::9                      2                       # What write queue length does an incoming req see
system.mem_ctrls0.wrQLenPdf::10                     2                       # What write queue length does an incoming req see
system.mem_ctrls0.wrQLenPdf::11                     2                       # What write queue length does an incoming req see
system.mem_ctrls0.wrQLenPdf::12                     2                       # What write queue length does an incoming req see
system.mem_ctrls0.wrQLenPdf::13                     2                       # What write queue length does an incoming req see
system.mem_ctrls0.wrQLenPdf::14                     2                       # What write queue length does an incoming req see
system.mem_ctrls0.wrQLenPdf::15                   372                       # What write queue length does an incoming req see
system.mem_ctrls0.wrQLenPdf::16                   373                       # What write queue length does an incoming req see
system.mem_ctrls0.wrQLenPdf::17                   403                       # What write queue length does an incoming req see
system.mem_ctrls0.wrQLenPdf::18                   409                       # What write queue length does an incoming req see
system.mem_ctrls0.wrQLenPdf::19                   406                       # What write queue length does an incoming req see
system.mem_ctrls0.wrQLenPdf::20                   405                       # What write queue length does an incoming req see
system.mem_ctrls0.wrQLenPdf::21                   408                       # What write queue length does an incoming req see
system.mem_ctrls0.wrQLenPdf::22                   406                       # What write queue length does an incoming req see
system.mem_ctrls0.wrQLenPdf::23                   406                       # What write queue length does an incoming req see
system.mem_ctrls0.wrQLenPdf::24                   406                       # What write queue length does an incoming req see
system.mem_ctrls0.wrQLenPdf::25                   407                       # What write queue length does an incoming req see
system.mem_ctrls0.wrQLenPdf::26                   405                       # What write queue length does an incoming req see
system.mem_ctrls0.wrQLenPdf::27                   407                       # What write queue length does an incoming req see
system.mem_ctrls0.wrQLenPdf::28                   407                       # What write queue length does an incoming req see
system.mem_ctrls0.wrQLenPdf::29                   405                       # What write queue length does an incoming req see
system.mem_ctrls0.wrQLenPdf::30                   405                       # What write queue length does an incoming req see
system.mem_ctrls0.wrQLenPdf::31                   405                       # What write queue length does an incoming req see
system.mem_ctrls0.wrQLenPdf::32                   405                       # What write queue length does an incoming req see
system.mem_ctrls0.wrQLenPdf::33                     9                       # What write queue length does an incoming req see
system.mem_ctrls0.wrQLenPdf::34                     2                       # What write queue length does an incoming req see
system.mem_ctrls0.wrQLenPdf::35                     0                       # What write queue length does an incoming req see
system.mem_ctrls0.wrQLenPdf::36                     0                       # What write queue length does an incoming req see
system.mem_ctrls0.wrQLenPdf::37                     0                       # What write queue length does an incoming req see
system.mem_ctrls0.wrQLenPdf::38                     0                       # What write queue length does an incoming req see
system.mem_ctrls0.wrQLenPdf::39                     0                       # What write queue length does an incoming req see
system.mem_ctrls0.wrQLenPdf::40                     0                       # What write queue length does an incoming req see
system.mem_ctrls0.wrQLenPdf::41                     0                       # What write queue length does an incoming req see
system.mem_ctrls0.wrQLenPdf::42                     0                       # What write queue length does an incoming req see
system.mem_ctrls0.wrQLenPdf::43                     0                       # What write queue length does an incoming req see
system.mem_ctrls0.wrQLenPdf::44                     0                       # What write queue length does an incoming req see
system.mem_ctrls0.wrQLenPdf::45                     0                       # What write queue length does an incoming req see
system.mem_ctrls0.wrQLenPdf::46                     0                       # What write queue length does an incoming req see
system.mem_ctrls0.wrQLenPdf::47                     0                       # What write queue length does an incoming req see
system.mem_ctrls0.wrQLenPdf::48                     0                       # What write queue length does an incoming req see
system.mem_ctrls0.wrQLenPdf::49                     0                       # What write queue length does an incoming req see
system.mem_ctrls0.wrQLenPdf::50                     0                       # What write queue length does an incoming req see
system.mem_ctrls0.wrQLenPdf::51                     0                       # What write queue length does an incoming req see
system.mem_ctrls0.wrQLenPdf::52                     0                       # What write queue length does an incoming req see
system.mem_ctrls0.wrQLenPdf::53                     0                       # What write queue length does an incoming req see
system.mem_ctrls0.wrQLenPdf::54                     0                       # What write queue length does an incoming req see
system.mem_ctrls0.wrQLenPdf::55                     0                       # What write queue length does an incoming req see
system.mem_ctrls0.wrQLenPdf::56                     0                       # What write queue length does an incoming req see
system.mem_ctrls0.wrQLenPdf::57                     0                       # What write queue length does an incoming req see
system.mem_ctrls0.wrQLenPdf::58                     0                       # What write queue length does an incoming req see
system.mem_ctrls0.wrQLenPdf::59                     0                       # What write queue length does an incoming req see
system.mem_ctrls0.wrQLenPdf::60                     0                       # What write queue length does an incoming req see
system.mem_ctrls0.wrQLenPdf::61                     0                       # What write queue length does an incoming req see
system.mem_ctrls0.wrQLenPdf::62                     0                       # What write queue length does an incoming req see
system.mem_ctrls0.wrQLenPdf::63                     0                       # What write queue length does an incoming req see
system.mem_ctrls0.bytesPerActivate::samples        23656                       # Bytes accessed per row activation
system.mem_ctrls0.bytesPerActivate::mean   143.669936                       # Bytes accessed per row activation
system.mem_ctrls0.bytesPerActivate::gmean   104.516621                       # Bytes accessed per row activation
system.mem_ctrls0.bytesPerActivate::stdev   164.907366                       # Bytes accessed per row activation
system.mem_ctrls0.bytesPerActivate::0-127        13781     58.26%     58.26% # Bytes accessed per row activation
system.mem_ctrls0.bytesPerActivate::128-255         6689     28.28%     86.53% # Bytes accessed per row activation
system.mem_ctrls0.bytesPerActivate::256-383         1348      5.70%     92.23% # Bytes accessed per row activation
system.mem_ctrls0.bytesPerActivate::384-511          839      3.55%     95.78% # Bytes accessed per row activation
system.mem_ctrls0.bytesPerActivate::512-639          204      0.86%     96.64% # Bytes accessed per row activation
system.mem_ctrls0.bytesPerActivate::640-767          137      0.58%     97.22% # Bytes accessed per row activation
system.mem_ctrls0.bytesPerActivate::768-895          180      0.76%     97.98% # Bytes accessed per row activation
system.mem_ctrls0.bytesPerActivate::896-1023          266      1.12%     99.10% # Bytes accessed per row activation
system.mem_ctrls0.bytesPerActivate::1024-1151          212      0.90%    100.00% # Bytes accessed per row activation
system.mem_ctrls0.bytesPerActivate::total        23656                       # Bytes accessed per row activation
system.mem_ctrls0.rdPerTurnAround::samples          406                       # Reads before turning the bus around for writes
system.mem_ctrls0.rdPerTurnAround::mean    112.903941                       # Reads before turning the bus around for writes
system.mem_ctrls0.rdPerTurnAround::stdev  1375.916760                       # Reads before turning the bus around for writes
system.mem_ctrls0.rdPerTurnAround::0-1023          405     99.75%     99.75% # Reads before turning the bus around for writes
system.mem_ctrls0.rdPerTurnAround::27648-28671            1      0.25%    100.00% # Reads before turning the bus around for writes
system.mem_ctrls0.rdPerTurnAround::total          406                       # Reads before turning the bus around for writes
system.mem_ctrls0.wrPerTurnAround::samples          406                       # Writes before turning the bus around for reads
system.mem_ctrls0.wrPerTurnAround::mean     17.894089                       # Writes before turning the bus around for reads
system.mem_ctrls0.wrPerTurnAround::gmean    17.881987                       # Writes before turning the bus around for reads
system.mem_ctrls0.wrPerTurnAround::stdev     0.648733                       # Writes before turning the bus around for reads
system.mem_ctrls0.wrPerTurnAround::16              33      8.13%      8.13% # Writes before turning the bus around for reads
system.mem_ctrls0.wrPerTurnAround::17               2      0.49%      8.62% # Writes before turning the bus around for reads
system.mem_ctrls0.wrPerTurnAround::18             351     86.45%     95.07% # Writes before turning the bus around for reads
system.mem_ctrls0.wrPerTurnAround::19              17      4.19%     99.26% # Writes before turning the bus around for reads
system.mem_ctrls0.wrPerTurnAround::20               2      0.49%     99.75% # Writes before turning the bus around for reads
system.mem_ctrls0.wrPerTurnAround::22               1      0.25%    100.00% # Writes before turning the bus around for reads
system.mem_ctrls0.wrPerTurnAround::total          406                       # Writes before turning the bus around for reads
system.mem_ctrls0.totQLat                  4136874244                       # Total ticks spent queuing
system.mem_ctrls0.totMemAccLat             4996355494                       # Total ticks spent from burst creation until serviced by the DRAM
system.mem_ctrls0.totBusLat                 229195000                       # Total ticks spent in databus transfers
system.mem_ctrls0.avgQLat                    90247.92                       # Average queueing delay per DRAM burst
system.mem_ctrls0.avgBusLat                   5000.00                       # Average bus latency per DRAM burst
system.mem_ctrls0.avgMemAccLat              108997.92                       # Average memory access latency per DRAM burst
system.mem_ctrls0.avgRdBW                        2.88                       # Average DRAM read bandwidth in MiByte/s
system.mem_ctrls0.avgWrBW                        0.46                       # Average achieved write bandwidth in MiByte/s
system.mem_ctrls0.avgRdBWSys                     2.93                       # Average system read bandwidth in MiByte/s
system.mem_ctrls0.avgWrBWSys                     0.46                       # Average system write bandwidth in MiByte/s
system.mem_ctrls0.peakBW                     12800.00                       # Theoretical peak bandwidth in MiByte/s
system.mem_ctrls0.busUtil                        0.03                       # Data bus utilization in percentage
system.mem_ctrls0.busUtilRead                    0.02                       # Data bus utilization in percentage for reads
system.mem_ctrls0.busUtilWrite                   0.00                       # Data bus utilization in percentage for writes
system.mem_ctrls0.avgRdQLen                      1.00                       # Average read queue length when enqueuing
system.mem_ctrls0.avgWrQLen                     13.73                       # Average write queue length when enqueuing
system.mem_ctrls0.readRowHits                   28104                       # Number of row buffer hits during reads
system.mem_ctrls0.writeRowHits                   1344                       # Number of row buffer hits during writes
system.mem_ctrls0.readRowHitRate                61.31                       # Row buffer hit rate for reads
system.mem_ctrls0.writeRowHitRate               18.46                       # Row buffer hit rate for writes
system.mem_ctrls0.avgGap                  18906776.86                       # Average gap between requests
system.mem_ctrls0.pageHitRate                   55.44                       # Row buffer hit rate, read and write combined
system.mem_ctrls0_0.actEnergy                77875980                       # Energy for activate commands per rank (pJ)
system.mem_ctrls0_0.preEnergy                41392065                       # Energy for precharge commands per rank (pJ)
system.mem_ctrls0_0.readEnergy              157594080                       # Energy for read commands per rank (pJ)
system.mem_ctrls0_0.writeEnergy              18024660                       # Energy for write commands per rank (pJ)
system.mem_ctrls0_0.refreshEnergy        7239229920.000002                       # Energy for refresh commands per rank (pJ)
system.mem_ctrls0_0.actBackEnergy          2361553320                       # Energy for active background per rank (pJ)
system.mem_ctrls0_0.preBackEnergy           437993280                       # Energy for precharge background per rank (pJ)
system.mem_ctrls0_0.actPowerDownEnergy    15346453710                       # Energy for active power-down per rank (pJ)
system.mem_ctrls0_0.prePowerDownEnergy    10836308160                       # Energy for precharge power-down per rank (pJ)
system.mem_ctrls0_0.selfRefreshEnergy    230091313635                       # Energy for self refresh per rank (pJ)
system.mem_ctrls0_0.totalEnergy          266611296660                       # Total energy per rank (pJ)
system.mem_ctrls0_0.averagePower           261.526883                       # Core power per rank (mW)
system.mem_ctrls0_0.totalIdleTime        1013113886383                       # Total Idle time Per DRAM Rank
system.mem_ctrls0_0.memoryStateTime::IDLE    892351134                       # Time in different power states
system.mem_ctrls0_0.memoryStateTime::REF   3082092000                       # Time in different power states
system.mem_ctrls0_0.memoryStateTime::SREF 951239858938                       # Time in different power states
system.mem_ctrls0_0.memoryStateTime::PRE_PDN  28219576238                       # Time in different power states
system.mem_ctrls0_0.memoryStateTime::ACT   2352865784                       # Time in different power states
system.mem_ctrls0_0.memoryStateTime::ACT_PDN  33654522844                       # Time in different power states
system.mem_ctrls0_1.actEnergy                91027860                       # Energy for activate commands per rank (pJ)
system.mem_ctrls0_1.preEnergy                48382455                       # Energy for precharge commands per rank (pJ)
system.mem_ctrls0_1.readEnergy              169696380                       # Energy for read commands per rank (pJ)
system.mem_ctrls0_1.writeEnergy              19898640                       # Energy for write commands per rank (pJ)
system.mem_ctrls0_1.refreshEnergy        8488178400.000002                       # Energy for refresh commands per rank (pJ)
system.mem_ctrls0_1.actBackEnergy          2622100320                       # Energy for active background per rank (pJ)
system.mem_ctrls0_1.preBackEnergy           510228960                       # Energy for precharge background per rank (pJ)
system.mem_ctrls0_1.actPowerDownEnergy    18074500500                       # Energy for active power-down per rank (pJ)
system.mem_ctrls0_1.prePowerDownEnergy    12941553600                       # Energy for precharge power-down per rank (pJ)
system.mem_ctrls0_1.selfRefreshEnergy    227431617720                       # Energy for self refresh per rank (pJ)
system.mem_ctrls0_1.totalEnergy          270401206875                       # Total energy per rank (pJ)
system.mem_ctrls0_1.averagePower           265.244517                       # Core power per rank (mW)
system.mem_ctrls0_1.totalIdleTime        1012353205796                       # Total Idle time Per DRAM Rank
system.mem_ctrls0_1.memoryStateTime::IDLE   1036530746                       # Time in different power states
system.mem_ctrls0_1.memoryStateTime::REF   3613364000                       # Time in different power states
system.mem_ctrls0_1.memoryStateTime::SREF 939014322938                       # Time in different power states
system.mem_ctrls0_1.memoryStateTime::PRE_PDN  33701923693                       # Time in different power states
system.mem_ctrls0_1.memoryStateTime::ACT   2438094759                       # Time in different power states
system.mem_ctrls0_1.memoryStateTime::ACT_PDN  39637030802                       # Time in different power states
system.mem_ctrls1.pwrStateResidencyTicks::UNDEFINED 176570725388805                       # Cumulative time (in ticks) in various power states
system.mem_ctrls1.bytes_read::cpu.inst            192                       # Number of bytes read from this memory
system.mem_ctrls1.bytes_read::cpu.data            128                       # Number of bytes read from this memory
system.mem_ctrls1.bytes_read::switch_cpus.inst        47616                       # Number of bytes read from this memory
system.mem_ctrls1.bytes_read::switch_cpus.data      2472064                       # Number of bytes read from this memory
system.mem_ctrls1.bytes_read::switch_cpus_1.inst        12608                       # Number of bytes read from this memory
system.mem_ctrls1.bytes_read::switch_cpus_1.data       471808                       # Number of bytes read from this memory
system.mem_ctrls1.bytes_read::total           3004416                       # Number of bytes read from this memory
system.mem_ctrls1.bytes_inst_read::cpu.inst          192                       # Number of instructions bytes read from this memory
system.mem_ctrls1.bytes_inst_read::switch_cpus.inst        47616                       # Number of instructions bytes read from this memory
system.mem_ctrls1.bytes_inst_read::switch_cpus_1.inst        12608                       # Number of instructions bytes read from this memory
system.mem_ctrls1.bytes_inst_read::total        60416                       # Number of instructions bytes read from this memory
system.mem_ctrls1.bytes_written::writebacks       487040                       # Number of bytes written to this memory
system.mem_ctrls1.bytes_written::total         487040                       # Number of bytes written to this memory
system.mem_ctrls1.num_reads::cpu.inst               3                       # Number of read requests responded to by this memory
system.mem_ctrls1.num_reads::cpu.data               2                       # Number of read requests responded to by this memory
system.mem_ctrls1.num_reads::switch_cpus.inst          744                       # Number of read requests responded to by this memory
system.mem_ctrls1.num_reads::switch_cpus.data        38626                       # Number of read requests responded to by this memory
system.mem_ctrls1.num_reads::switch_cpus_1.inst          197                       # Number of read requests responded to by this memory
system.mem_ctrls1.num_reads::switch_cpus_1.data         7372                       # Number of read requests responded to by this memory
system.mem_ctrls1.num_reads::total              46944                       # Number of read requests responded to by this memory
system.mem_ctrls1.num_writes::writebacks         7610                       # Number of write requests responded to by this memory
system.mem_ctrls1.num_writes::total              7610                       # Number of write requests responded to by this memory
system.mem_ctrls1.bw_read::cpu.inst               188                       # Total read bandwidth from this memory (bytes/s)
system.mem_ctrls1.bw_read::cpu.data               126                       # Total read bandwidth from this memory (bytes/s)
system.mem_ctrls1.bw_read::switch_cpus.inst        46708                       # Total read bandwidth from this memory (bytes/s)
system.mem_ctrls1.bw_read::switch_cpus.data      2424920                       # Total read bandwidth from this memory (bytes/s)
system.mem_ctrls1.bw_read::switch_cpus_1.inst        12368                       # Total read bandwidth from this memory (bytes/s)
system.mem_ctrls1.bw_read::switch_cpus_1.data       462810                       # Total read bandwidth from this memory (bytes/s)
system.mem_ctrls1.bw_read::total              2947120                       # Total read bandwidth from this memory (bytes/s)
system.mem_ctrls1.bw_inst_read::cpu.inst          188                       # Instruction read bandwidth from this memory (bytes/s)
system.mem_ctrls1.bw_inst_read::switch_cpus.inst        46708                       # Instruction read bandwidth from this memory (bytes/s)
system.mem_ctrls1.bw_inst_read::switch_cpus_1.inst        12368                       # Instruction read bandwidth from this memory (bytes/s)
system.mem_ctrls1.bw_inst_read::total           59264                       # Instruction read bandwidth from this memory (bytes/s)
system.mem_ctrls1.bw_write::writebacks         477752                       # Write bandwidth from this memory (bytes/s)
system.mem_ctrls1.bw_write::total              477752                       # Write bandwidth from this memory (bytes/s)
system.mem_ctrls1.bw_total::writebacks         477752                       # Total bandwidth to/from this memory (bytes/s)
system.mem_ctrls1.bw_total::cpu.inst              188                       # Total bandwidth to/from this memory (bytes/s)
system.mem_ctrls1.bw_total::cpu.data              126                       # Total bandwidth to/from this memory (bytes/s)
system.mem_ctrls1.bw_total::switch_cpus.inst        46708                       # Total bandwidth to/from this memory (bytes/s)
system.mem_ctrls1.bw_total::switch_cpus.data      2424920                       # Total bandwidth to/from this memory (bytes/s)
system.mem_ctrls1.bw_total::switch_cpus_1.inst        12368                       # Total bandwidth to/from this memory (bytes/s)
system.mem_ctrls1.bw_total::switch_cpus_1.data       462810                       # Total bandwidth to/from this memory (bytes/s)
system.mem_ctrls1.bw_total::total             3424872                       # Total bandwidth to/from this memory (bytes/s)
system.mem_ctrls1.readReqs                      46944                       # Number of read requests accepted
system.mem_ctrls1.writeReqs                      7610                       # Number of write requests accepted
system.mem_ctrls1.readBursts                    46944                       # Number of DRAM read bursts, including those serviced by the write queue
system.mem_ctrls1.writeBursts                    7610                       # Number of DRAM write bursts, including those merged in the write queue
system.mem_ctrls1.bytesReadDRAM               2953920                       # Total number of bytes read from DRAM
system.mem_ctrls1.bytesReadWrQ                  50496                       # Total number of bytes read from write queue
system.mem_ctrls1.bytesWritten                 485504                       # Total number of bytes written to DRAM
system.mem_ctrls1.bytesReadSys                3004416                       # Total read bytes from the system interface side
system.mem_ctrls1.bytesWrittenSys              487040                       # Total written bytes from the system interface side
system.mem_ctrls1.servicedByWrQ                   789                       # Number of DRAM read bursts serviced by the write queue
system.mem_ctrls1.mergedWrBursts                    4                       # Number of DRAM write bursts merged with an existing one
system.mem_ctrls1.neitherReadNorWriteReqs            0                       # Number of requests that are neither read nor write
system.mem_ctrls1.perBankRdBursts::0             3008                       # Per bank write bursts
system.mem_ctrls1.perBankRdBursts::1             2441                       # Per bank write bursts
system.mem_ctrls1.perBankRdBursts::2             2570                       # Per bank write bursts
system.mem_ctrls1.perBankRdBursts::3             2778                       # Per bank write bursts
system.mem_ctrls1.perBankRdBursts::4             2572                       # Per bank write bursts
system.mem_ctrls1.perBankRdBursts::5             2604                       # Per bank write bursts
system.mem_ctrls1.perBankRdBursts::6             3286                       # Per bank write bursts
system.mem_ctrls1.perBankRdBursts::7             2912                       # Per bank write bursts
system.mem_ctrls1.perBankRdBursts::8             3035                       # Per bank write bursts
system.mem_ctrls1.perBankRdBursts::9             2857                       # Per bank write bursts
system.mem_ctrls1.perBankRdBursts::10            2963                       # Per bank write bursts
system.mem_ctrls1.perBankRdBursts::11            2785                       # Per bank write bursts
system.mem_ctrls1.perBankRdBursts::12            2972                       # Per bank write bursts
system.mem_ctrls1.perBankRdBursts::13            2784                       # Per bank write bursts
system.mem_ctrls1.perBankRdBursts::14            3670                       # Per bank write bursts
system.mem_ctrls1.perBankRdBursts::15            2918                       # Per bank write bursts
system.mem_ctrls1.perBankWrBursts::0              568                       # Per bank write bursts
system.mem_ctrls1.perBankWrBursts::1              261                       # Per bank write bursts
system.mem_ctrls1.perBankWrBursts::2              337                       # Per bank write bursts
system.mem_ctrls1.perBankWrBursts::3              328                       # Per bank write bursts
system.mem_ctrls1.perBankWrBursts::4              391                       # Per bank write bursts
system.mem_ctrls1.perBankWrBursts::5              242                       # Per bank write bursts
system.mem_ctrls1.perBankWrBursts::6              859                       # Per bank write bursts
system.mem_ctrls1.perBankWrBursts::7              511                       # Per bank write bursts
system.mem_ctrls1.perBankWrBursts::8              608                       # Per bank write bursts
system.mem_ctrls1.perBankWrBursts::9              313                       # Per bank write bursts
system.mem_ctrls1.perBankWrBursts::10             388                       # Per bank write bursts
system.mem_ctrls1.perBankWrBursts::11             402                       # Per bank write bursts
system.mem_ctrls1.perBankWrBursts::12             460                       # Per bank write bursts
system.mem_ctrls1.perBankWrBursts::13             344                       # Per bank write bursts
system.mem_ctrls1.perBankWrBursts::14            1083                       # Per bank write bursts
system.mem_ctrls1.perBankWrBursts::15             491                       # Per bank write bursts
system.mem_ctrls1.numRdRetry                        0                       # Number of times read queue was full causing retry
system.mem_ctrls1.numWrRetry                        0                       # Number of times write queue was full causing retry
system.mem_ctrls1.totGap                 1019422805418                       # Total gap between requests
system.mem_ctrls1.readPktSize::0                    0                       # Read request sizes (log2)
system.mem_ctrls1.readPktSize::1                    0                       # Read request sizes (log2)
system.mem_ctrls1.readPktSize::2                    0                       # Read request sizes (log2)
system.mem_ctrls1.readPktSize::3                    0                       # Read request sizes (log2)
system.mem_ctrls1.readPktSize::4                    0                       # Read request sizes (log2)
system.mem_ctrls1.readPktSize::5                    0                       # Read request sizes (log2)
system.mem_ctrls1.readPktSize::6                46944                       # Read request sizes (log2)
system.mem_ctrls1.writePktSize::0                   0                       # Write request sizes (log2)
system.mem_ctrls1.writePktSize::1                   0                       # Write request sizes (log2)
system.mem_ctrls1.writePktSize::2                   0                       # Write request sizes (log2)
system.mem_ctrls1.writePktSize::3                   0                       # Write request sizes (log2)
system.mem_ctrls1.writePktSize::4                   0                       # Write request sizes (log2)
system.mem_ctrls1.writePktSize::5                   0                       # Write request sizes (log2)
system.mem_ctrls1.writePktSize::6                7610                       # Write request sizes (log2)
system.mem_ctrls1.rdQLenPdf::0                  45911                       # What read queue length does an incoming req see
system.mem_ctrls1.rdQLenPdf::1                    238                       # What read queue length does an incoming req see
system.mem_ctrls1.rdQLenPdf::2                      6                       # What read queue length does an incoming req see
system.mem_ctrls1.rdQLenPdf::3                      0                       # What read queue length does an incoming req see
system.mem_ctrls1.rdQLenPdf::4                      0                       # What read queue length does an incoming req see
system.mem_ctrls1.rdQLenPdf::5                      0                       # What read queue length does an incoming req see
system.mem_ctrls1.rdQLenPdf::6                      0                       # What read queue length does an incoming req see
system.mem_ctrls1.rdQLenPdf::7                      0                       # What read queue length does an incoming req see
system.mem_ctrls1.rdQLenPdf::8                      0                       # What read queue length does an incoming req see
system.mem_ctrls1.rdQLenPdf::9                      0                       # What read queue length does an incoming req see
system.mem_ctrls1.rdQLenPdf::10                     0                       # What read queue length does an incoming req see
system.mem_ctrls1.rdQLenPdf::11                     0                       # What read queue length does an incoming req see
system.mem_ctrls1.rdQLenPdf::12                     0                       # What read queue length does an incoming req see
system.mem_ctrls1.rdQLenPdf::13                     0                       # What read queue length does an incoming req see
system.mem_ctrls1.rdQLenPdf::14                     0                       # What read queue length does an incoming req see
system.mem_ctrls1.rdQLenPdf::15                     0                       # What read queue length does an incoming req see
system.mem_ctrls1.rdQLenPdf::16                     0                       # What read queue length does an incoming req see
system.mem_ctrls1.rdQLenPdf::17                     0                       # What read queue length does an incoming req see
system.mem_ctrls1.rdQLenPdf::18                     0                       # What read queue length does an incoming req see
system.mem_ctrls1.rdQLenPdf::19                     0                       # What read queue length does an incoming req see
system.mem_ctrls1.rdQLenPdf::20                     0                       # What read queue length does an incoming req see
system.mem_ctrls1.rdQLenPdf::21                     0                       # What read queue length does an incoming req see
system.mem_ctrls1.rdQLenPdf::22                     0                       # What read queue length does an incoming req see
system.mem_ctrls1.rdQLenPdf::23                     0                       # What read queue length does an incoming req see
system.mem_ctrls1.rdQLenPdf::24                     0                       # What read queue length does an incoming req see
system.mem_ctrls1.rdQLenPdf::25                     0                       # What read queue length does an incoming req see
system.mem_ctrls1.rdQLenPdf::26                     0                       # What read queue length does an incoming req see
system.mem_ctrls1.rdQLenPdf::27                     0                       # What read queue length does an incoming req see
system.mem_ctrls1.rdQLenPdf::28                     0                       # What read queue length does an incoming req see
system.mem_ctrls1.rdQLenPdf::29                     0                       # What read queue length does an incoming req see
system.mem_ctrls1.rdQLenPdf::30                     0                       # What read queue length does an incoming req see
system.mem_ctrls1.rdQLenPdf::31                     0                       # What read queue length does an incoming req see
system.mem_ctrls1.wrQLenPdf::0                      2                       # What write queue length does an incoming req see
system.mem_ctrls1.wrQLenPdf::1                      2                       # What write queue length does an incoming req see
system.mem_ctrls1.wrQLenPdf::2                      2                       # What write queue length does an incoming req see
system.mem_ctrls1.wrQLenPdf::3                      2                       # What write queue length does an incoming req see
system.mem_ctrls1.wrQLenPdf::4                      2                       # What write queue length does an incoming req see
system.mem_ctrls1.wrQLenPdf::5                      2                       # What write queue length does an incoming req see
system.mem_ctrls1.wrQLenPdf::6                      2                       # What write queue length does an incoming req see
system.mem_ctrls1.wrQLenPdf::7                      2                       # What write queue length does an incoming req see
system.mem_ctrls1.wrQLenPdf::8                      2                       # What write queue length does an incoming req see
system.mem_ctrls1.wrQLenPdf::9                      2                       # What write queue length does an incoming req see
system.mem_ctrls1.wrQLenPdf::10                     2                       # What write queue length does an incoming req see
system.mem_ctrls1.wrQLenPdf::11                     2                       # What write queue length does an incoming req see
system.mem_ctrls1.wrQLenPdf::12                     2                       # What write queue length does an incoming req see
system.mem_ctrls1.wrQLenPdf::13                     2                       # What write queue length does an incoming req see
system.mem_ctrls1.wrQLenPdf::14                     2                       # What write queue length does an incoming req see
system.mem_ctrls1.wrQLenPdf::15                   389                       # What write queue length does an incoming req see
system.mem_ctrls1.wrQLenPdf::16                   395                       # What write queue length does an incoming req see
system.mem_ctrls1.wrQLenPdf::17                   426                       # What write queue length does an incoming req see
system.mem_ctrls1.wrQLenPdf::18                   425                       # What write queue length does an incoming req see
system.mem_ctrls1.wrQLenPdf::19                   425                       # What write queue length does an incoming req see
system.mem_ctrls1.wrQLenPdf::20                   425                       # What write queue length does an incoming req see
system.mem_ctrls1.wrQLenPdf::21                   424                       # What write queue length does an incoming req see
system.mem_ctrls1.wrQLenPdf::22                   423                       # What write queue length does an incoming req see
system.mem_ctrls1.wrQLenPdf::23                   423                       # What write queue length does an incoming req see
system.mem_ctrls1.wrQLenPdf::24                   425                       # What write queue length does an incoming req see
system.mem_ctrls1.wrQLenPdf::25                   428                       # What write queue length does an incoming req see
system.mem_ctrls1.wrQLenPdf::26                   424                       # What write queue length does an incoming req see
system.mem_ctrls1.wrQLenPdf::27                   423                       # What write queue length does an incoming req see
system.mem_ctrls1.wrQLenPdf::28                   423                       # What write queue length does an incoming req see
system.mem_ctrls1.wrQLenPdf::29                   423                       # What write queue length does an incoming req see
system.mem_ctrls1.wrQLenPdf::30                   424                       # What write queue length does an incoming req see
system.mem_ctrls1.wrQLenPdf::31                   423                       # What write queue length does an incoming req see
system.mem_ctrls1.wrQLenPdf::32                   423                       # What write queue length does an incoming req see
system.mem_ctrls1.wrQLenPdf::33                     5                       # What write queue length does an incoming req see
system.mem_ctrls1.wrQLenPdf::34                     0                       # What write queue length does an incoming req see
system.mem_ctrls1.wrQLenPdf::35                     0                       # What write queue length does an incoming req see
system.mem_ctrls1.wrQLenPdf::36                     0                       # What write queue length does an incoming req see
system.mem_ctrls1.wrQLenPdf::37                     0                       # What write queue length does an incoming req see
system.mem_ctrls1.wrQLenPdf::38                     0                       # What write queue length does an incoming req see
system.mem_ctrls1.wrQLenPdf::39                     0                       # What write queue length does an incoming req see
system.mem_ctrls1.wrQLenPdf::40                     0                       # What write queue length does an incoming req see
system.mem_ctrls1.wrQLenPdf::41                     0                       # What write queue length does an incoming req see
system.mem_ctrls1.wrQLenPdf::42                     0                       # What write queue length does an incoming req see
system.mem_ctrls1.wrQLenPdf::43                     0                       # What write queue length does an incoming req see
system.mem_ctrls1.wrQLenPdf::44                     0                       # What write queue length does an incoming req see
system.mem_ctrls1.wrQLenPdf::45                     0                       # What write queue length does an incoming req see
system.mem_ctrls1.wrQLenPdf::46                     0                       # What write queue length does an incoming req see
system.mem_ctrls1.wrQLenPdf::47                     0                       # What write queue length does an incoming req see
system.mem_ctrls1.wrQLenPdf::48                     0                       # What write queue length does an incoming req see
system.mem_ctrls1.wrQLenPdf::49                     0                       # What write queue length does an incoming req see
system.mem_ctrls1.wrQLenPdf::50                     0                       # What write queue length does an incoming req see
system.mem_ctrls1.wrQLenPdf::51                     0                       # What write queue length does an incoming req see
system.mem_ctrls1.wrQLenPdf::52                     0                       # What write queue length does an incoming req see
system.mem_ctrls1.wrQLenPdf::53                     0                       # What write queue length does an incoming req see
system.mem_ctrls1.wrQLenPdf::54                     0                       # What write queue length does an incoming req see
system.mem_ctrls1.wrQLenPdf::55                     0                       # What write queue length does an incoming req see
system.mem_ctrls1.wrQLenPdf::56                     0                       # What write queue length does an incoming req see
system.mem_ctrls1.wrQLenPdf::57                     0                       # What write queue length does an incoming req see
system.mem_ctrls1.wrQLenPdf::58                     0                       # What write queue length does an incoming req see
system.mem_ctrls1.wrQLenPdf::59                     0                       # What write queue length does an incoming req see
system.mem_ctrls1.wrQLenPdf::60                     0                       # What write queue length does an incoming req see
system.mem_ctrls1.wrQLenPdf::61                     0                       # What write queue length does an incoming req see
system.mem_ctrls1.wrQLenPdf::62                     0                       # What write queue length does an incoming req see
system.mem_ctrls1.wrQLenPdf::63                     0                       # What write queue length does an incoming req see
system.mem_ctrls1.bytesPerActivate::samples        23867                       # Bytes accessed per row activation
system.mem_ctrls1.bytesPerActivate::mean   144.107931                       # Bytes accessed per row activation
system.mem_ctrls1.bytesPerActivate::gmean   104.782858                       # Bytes accessed per row activation
system.mem_ctrls1.bytesPerActivate::stdev   165.374184                       # Bytes accessed per row activation
system.mem_ctrls1.bytesPerActivate::0-127        13859     58.07%     58.07% # Bytes accessed per row activation
system.mem_ctrls1.bytesPerActivate::128-255         6791     28.45%     86.52% # Bytes accessed per row activation
system.mem_ctrls1.bytesPerActivate::256-383         1343      5.63%     92.15% # Bytes accessed per row activation
system.mem_ctrls1.bytesPerActivate::384-511          877      3.67%     95.82% # Bytes accessed per row activation
system.mem_ctrls1.bytesPerActivate::512-639          182      0.76%     96.59% # Bytes accessed per row activation
system.mem_ctrls1.bytesPerActivate::640-767          157      0.66%     97.24% # Bytes accessed per row activation
system.mem_ctrls1.bytesPerActivate::768-895          162      0.68%     97.92% # Bytes accessed per row activation
system.mem_ctrls1.bytesPerActivate::896-1023          268      1.12%     99.04% # Bytes accessed per row activation
system.mem_ctrls1.bytesPerActivate::1024-1151          228      0.96%    100.00% # Bytes accessed per row activation
system.mem_ctrls1.bytesPerActivate::total        23867                       # Bytes accessed per row activation
system.mem_ctrls1.rdPerTurnAround::samples          424                       # Reads before turning the bus around for writes
system.mem_ctrls1.rdPerTurnAround::mean    108.851415                       # Reads before turning the bus around for writes
system.mem_ctrls1.rdPerTurnAround::stdev  1342.483818                       # Reads before turning the bus around for writes
system.mem_ctrls1.rdPerTurnAround::0-1023          423     99.76%     99.76% # Reads before turning the bus around for writes
system.mem_ctrls1.rdPerTurnAround::27648-28671            1      0.24%    100.00% # Reads before turning the bus around for writes
system.mem_ctrls1.rdPerTurnAround::total          424                       # Reads before turning the bus around for writes
system.mem_ctrls1.wrPerTurnAround::samples          424                       # Writes before turning the bus around for reads
system.mem_ctrls1.wrPerTurnAround::mean     17.891509                       # Writes before turning the bus around for reads
system.mem_ctrls1.wrPerTurnAround::gmean    17.880273                       # Writes before turning the bus around for reads
system.mem_ctrls1.wrPerTurnAround::stdev     0.620778                       # Writes before turning the bus around for reads
system.mem_ctrls1.wrPerTurnAround::16              34      8.02%      8.02% # Writes before turning the bus around for reads
system.mem_ctrls1.wrPerTurnAround::17               2      0.47%      8.49% # Writes before turning the bus around for reads
system.mem_ctrls1.wrPerTurnAround::18             367     86.56%     95.05% # Writes before turning the bus around for reads
system.mem_ctrls1.wrPerTurnAround::19              18      4.25%     99.29% # Writes before turning the bus around for reads
system.mem_ctrls1.wrPerTurnAround::20               3      0.71%    100.00% # Writes before turning the bus around for reads
system.mem_ctrls1.wrPerTurnAround::total          424                       # Writes before turning the bus around for reads
system.mem_ctrls1.totQLat                  4165856628                       # Total ticks spent queuing
system.mem_ctrls1.totMemAccLat             5031262878                       # Total ticks spent from burst creation until serviced by the DRAM
system.mem_ctrls1.totBusLat                 230775000                       # Total ticks spent in databus transfers
system.mem_ctrls1.avgQLat                    90257.97                       # Average queueing delay per DRAM burst
system.mem_ctrls1.avgBusLat                   5000.00                       # Average bus latency per DRAM burst
system.mem_ctrls1.avgMemAccLat              109007.97                       # Average memory access latency per DRAM burst
system.mem_ctrls1.avgRdBW                        2.90                       # Average DRAM read bandwidth in MiByte/s
system.mem_ctrls1.avgWrBW                        0.48                       # Average achieved write bandwidth in MiByte/s
system.mem_ctrls1.avgRdBWSys                     2.95                       # Average system read bandwidth in MiByte/s
system.mem_ctrls1.avgWrBWSys                     0.48                       # Average system write bandwidth in MiByte/s
system.mem_ctrls1.peakBW                     12800.00                       # Theoretical peak bandwidth in MiByte/s
system.mem_ctrls1.busUtil                        0.03                       # Data bus utilization in percentage
system.mem_ctrls1.busUtilRead                    0.02                       # Data bus utilization in percentage for reads
system.mem_ctrls1.busUtilWrite                   0.00                       # Data bus utilization in percentage for writes
system.mem_ctrls1.avgRdQLen                      1.00                       # Average read queue length when enqueuing
system.mem_ctrls1.avgWrQLen                     13.84                       # Average write queue length when enqueuing
system.mem_ctrls1.readRowHits                   28329                       # Number of row buffer hits during reads
system.mem_ctrls1.writeRowHits                   1545                       # Number of row buffer hits during writes
system.mem_ctrls1.readRowHitRate                61.38                       # Row buffer hit rate for reads
system.mem_ctrls1.writeRowHitRate               20.31                       # Row buffer hit rate for writes
system.mem_ctrls1.avgGap                  18686490.55                       # Average gap between requests
system.mem_ctrls1.pageHitRate                   55.57                       # Row buffer hit rate, read and write combined
system.mem_ctrls1_0.actEnergy                78240120                       # Energy for activate commands per rank (pJ)
system.mem_ctrls1_0.preEnergy                41585610                       # Energy for precharge commands per rank (pJ)
system.mem_ctrls1_0.readEnergy              158300940                       # Energy for read commands per rank (pJ)
system.mem_ctrls1_0.writeEnergy              18254340                       # Energy for write commands per rank (pJ)
system.mem_ctrls1_0.refreshEnergy        7232468880.000002                       # Energy for refresh commands per rank (pJ)
system.mem_ctrls1_0.actBackEnergy          2328448860                       # Energy for active background per rank (pJ)
system.mem_ctrls1_0.preBackEnergy           435396960                       # Energy for precharge background per rank (pJ)
system.mem_ctrls1_0.actPowerDownEnergy    15330914370                       # Energy for active power-down per rank (pJ)
system.mem_ctrls1_0.prePowerDownEnergy    10874023680                       # Energy for precharge power-down per rank (pJ)
system.mem_ctrls1_0.selfRefreshEnergy    230089765590                       # Energy for self refresh per rank (pJ)
system.mem_ctrls1_0.totalEnergy          266591889090                       # Total energy per rank (pJ)
system.mem_ctrls1_0.averagePower           261.507844                       # Core power per rank (mW)
system.mem_ctrls1_0.totalIdleTime        1013169544652                       # Total Idle time Per DRAM Rank
system.mem_ctrls1_0.memoryStateTime::IDLE    887593841                       # Time in different power states
system.mem_ctrls1_0.memoryStateTime::REF   3079136000                       # Time in different power states
system.mem_ctrls1_0.memoryStateTime::SREF 951253004308                       # Time in different power states
system.mem_ctrls1_0.memoryStateTime::PRE_PDN  28317801816                       # Time in different power states
system.mem_ctrls1_0.memoryStateTime::ACT   2283273140                       # Time in different power states
system.mem_ctrls1_0.memoryStateTime::ACT_PDN  33620457833                       # Time in different power states
system.mem_ctrls1_1.actEnergy                92170260                       # Energy for activate commands per rank (pJ)
system.mem_ctrls1_1.preEnergy                48989655                       # Energy for precharge commands per rank (pJ)
system.mem_ctrls1_1.readEnergy              171245760                       # Energy for read commands per rank (pJ)
system.mem_ctrls1_1.writeEnergy              21344580                       # Energy for write commands per rank (pJ)
system.mem_ctrls1_1.refreshEnergy        8667653280.000002                       # Energy for refresh commands per rank (pJ)
system.mem_ctrls1_1.actBackEnergy          2673758850                       # Energy for active background per rank (pJ)
system.mem_ctrls1_1.preBackEnergy           524705760                       # Energy for precharge background per rank (pJ)
system.mem_ctrls1_1.actPowerDownEnergy    18340030440                       # Energy for active power-down per rank (pJ)
system.mem_ctrls1_1.prePowerDownEnergy    13263095520                       # Energy for precharge power-down per rank (pJ)
system.mem_ctrls1_1.selfRefreshEnergy    227108174490                       # Energy for self refresh per rank (pJ)
system.mem_ctrls1_1.totalEnergy          270915058515                       # Total energy per rank (pJ)
system.mem_ctrls1_1.averagePower           265.748569                       # Core power per rank (mW)
system.mem_ctrls1_1.totalIdleTime        1012199147862                       # Total Idle time Per DRAM Rank
system.mem_ctrls1_1.memoryStateTime::IDLE   1067919966                       # Time in different power states
system.mem_ctrls1_1.memoryStateTime::REF   3689968000                       # Time in different power states
system.mem_ctrls1_1.memoryStateTime::SREF 937444012188                       # Time in different power states
system.mem_ctrls1_1.memoryStateTime::PRE_PDN  34539337972                       # Time in different power states
system.mem_ctrls1_1.memoryStateTime::ACT   2480627009                       # Time in different power states
system.mem_ctrls1_1.memoryStateTime::ACT_PDN  40219401803                       # Time in different power states
system.pwrStateResidencyTicks::UNDEFINED 176570725388805                       # Cumulative time (in ticks) in various power states
system.cpu.branchPred.lookups                       4                       # Number of BP lookups
system.cpu.branchPred.condPredicted                 2                       # Number of conditional branches predicted
system.cpu.branchPred.condIncorrect                 1                       # Number of conditional branches incorrect
system.cpu.branchPred.BTBLookups                    2                       # Number of BTB lookups
system.cpu.branchPred.BTBHits                       0                       # Number of BTB hits
system.cpu.branchPred.BTBCorrect                    0                       # Number of correct BTB predictions (this stat may not work properly.
system.cpu.branchPred.BTBHitPct              0.000000                       # BTB Hit Percentage
system.cpu.branchPred.usedRAS                       0                       # Number of times the RAS was used to get a target.
system.cpu.branchPred.RASInCorrect                  0                       # Number of incorrect RAS predictions.
system.cpu.branchPred.indirectLookups               0                       # Number of indirect predictor lookups.
system.cpu.branchPred.indirectHits                  0                       # Number of indirect target hits.
system.cpu.branchPred.indirectMisses                0                       # Number of indirect misses.
system.cpu.branchPredindirectMispredicted            0                       # Number of mispredicted indirect branches.
system.cpu_voltage_domain.voltage                   1                       # Voltage in Volts
system.cpu_clk_domain.clock                       333                       # Clock period in ticks
system.cpu.dtb.fetch_hits                           0                       # ITB hits
system.cpu.dtb.fetch_misses                         0                       # ITB misses
system.cpu.dtb.fetch_acv                            0                       # ITB acv
system.cpu.dtb.fetch_accesses                       0                       # ITB accesses
system.cpu.dtb.read_hits                           10                       # DTB read hits
system.cpu.dtb.read_misses                          0                       # DTB read misses
system.cpu.dtb.read_acv                             0                       # DTB read access violations
system.cpu.dtb.read_accesses                       10                       # DTB read accesses
system.cpu.dtb.write_hits                           0                       # DTB write hits
system.cpu.dtb.write_misses                         0                       # DTB write misses
system.cpu.dtb.write_acv                            0                       # DTB write access violations
system.cpu.dtb.write_accesses                       0                       # DTB write accesses
system.cpu.dtb.data_hits                           10                       # DTB hits
system.cpu.dtb.data_misses                          0                       # DTB misses
system.cpu.dtb.data_acv                             0                       # DTB access violations
system.cpu.dtb.data_accesses                       10                       # DTB accesses
system.cpu.itb.fetch_hits                           5                       # ITB hits
system.cpu.itb.fetch_misses                         0                       # ITB misses
system.cpu.itb.fetch_acv                            0                       # ITB acv
system.cpu.itb.fetch_accesses                       5                       # ITB accesses
system.cpu.itb.read_hits                            0                       # DTB read hits
system.cpu.itb.read_misses                          0                       # DTB read misses
system.cpu.itb.read_acv                             0                       # DTB read access violations
system.cpu.itb.read_accesses                        0                       # DTB read accesses
system.cpu.itb.write_hits                           0                       # DTB write hits
system.cpu.itb.write_misses                         0                       # DTB write misses
system.cpu.itb.write_acv                            0                       # DTB write access violations
system.cpu.itb.write_accesses                       0                       # DTB write accesses
system.cpu.itb.data_hits                            0                       # DTB hits
system.cpu.itb.data_misses                          0                       # DTB misses
system.cpu.itb.data_acv                             0                       # DTB access violations
system.cpu.itb.data_accesses                        0                       # DTB accesses
system.cpu.workload.num_syscalls                    0                       # Number of system calls
system.cpu.pwrStateResidencyTicks::ON    1019441266938                       # Cumulative time (in ticks) in various power states
system.cpu.numCycles                              729                       # number of cpu cycles simulated
system.cpu.numWorkItemsStarted                      0                       # number of work items this cpu started
system.cpu.numWorkItemsCompleted                    0                       # number of work items this cpu completed
system.cpu.fetch.icacheStallCycles                 49                       # Number of cycles fetch is stalled on an Icache miss
system.cpu.fetch.Insts                             32                       # Number of instructions fetch has processed
system.cpu.fetch.Branches                           4                       # Number of branches that fetch encountered
system.cpu.fetch.Cycles                             4                       # Number of cycles fetch has run and was not squashing or blocked
system.cpu.fetch.SquashCycles                       5                       # Number of cycles fetch has spent squashing
system.cpu.fetch.PendingDrainCycles                 7                       # Number of cycles fetch has spent waiting on pipes to drain
system.cpu.fetch.CacheLines                         5                       # Number of cache lines fetched
system.cpu.fetch.IcacheSquashes                     3                       # Number of outstanding Icache misses that were squashed
system.cpu.fetch.rateDist::samples                 62                       # Number of instructions fetched each cycle (Total)
system.cpu.fetch.rateDist::mean              0.516129                       # Number of instructions fetched each cycle (Total)
system.cpu.fetch.rateDist::stdev             1.981405                       # Number of instructions fetched each cycle (Total)
system.cpu.fetch.rateDist::underflows               0      0.00%      0.00% # Number of instructions fetched each cycle (Total)
system.cpu.fetch.rateDist::0                       58     93.55%     93.55% # Number of instructions fetched each cycle (Total)
system.cpu.fetch.rateDist::1                        0      0.00%     93.55% # Number of instructions fetched each cycle (Total)
system.cpu.fetch.rateDist::2                        0      0.00%     93.55% # Number of instructions fetched each cycle (Total)
system.cpu.fetch.rateDist::3                        0      0.00%     93.55% # Number of instructions fetched each cycle (Total)
system.cpu.fetch.rateDist::4                        0      0.00%     93.55% # Number of instructions fetched each cycle (Total)
system.cpu.fetch.rateDist::5                        0      0.00%     93.55% # Number of instructions fetched each cycle (Total)
system.cpu.fetch.rateDist::6                        0      0.00%     93.55% # Number of instructions fetched each cycle (Total)
system.cpu.fetch.rateDist::7                        0      0.00%     93.55% # Number of instructions fetched each cycle (Total)
system.cpu.fetch.rateDist::8                        4      6.45%    100.00% # Number of instructions fetched each cycle (Total)
system.cpu.fetch.rateDist::overflows                0      0.00%    100.00% # Number of instructions fetched each cycle (Total)
system.cpu.fetch.rateDist::min_value                0                       # Number of instructions fetched each cycle (Total)
[...]
system.switch_cpus_1.iq.int_inst_queue_writes    223490934                       # Number of integer instruction queue writes
system.switch_cpus_1.iq.int_inst_queue_wakeup_accesses    206495791                       # Number of integer instruction queue wakeup accesses
system.switch_cpus_1.iq.fp_inst_queue_reads      2763878                       # Number of floating instruction queue reads
system.switch_cpus_1.iq.fp_inst_queue_writes      1435577                       # Number of floating instruction queue writes
system.switch_cpus_1.iq.fp_inst_queue_wakeup_accesses      1372085                       # Number of floating instruction queue wakeup accesses
system.switch_cpus_1.iq.int_alu_accesses    218480297                       # Number of integer alu accesses
system.switch_cpus_1.iq.fp_alu_accesses       1385701                       # Number of floating point alu accesses
system.switch_cpus_1.iew.lsq.thread0.forwLoads      2866933                       # Number of loads that had data forwarded from stores
system.switch_cpus_1.iew.lsq.thread0.invAddrLoads            0                       # Number of loads ignored due to an invalid address
system.switch_cpus_1.iew.lsq.thread0.squashedLoads      2617420                       # Number of loads squashed
system.switch_cpus_1.iew.lsq.thread0.ignoredResponses         6740                       # Number of memory responses ignored because the instruction is squashed
system.switch_cpus_1.iew.lsq.thread0.memOrderViolation        15908                       # Number of memory ordering violations
system.switch_cpus_1.iew.lsq.thread0.squashedStores       568187                       # Number of stores squashed
system.switch_cpus_1.iew.lsq.thread0.invAddrSwpfs            0                       # Number of software prefetches ignored due to an invalid address
system.switch_cpus_1.iew.lsq.thread0.blockedLoads            0                       # Number of blocked loads due to partial load-store forwarding
system.switch_cpus_1.iew.lsq.thread0.rescheduledLoads         1090                       # Number of loads that were rescheduled
system.switch_cpus_1.iew.lsq.thread0.cacheBlocked       421936                       # Number of times an access to memory failed due to the cache being blocked
system.switch_cpus_1.iew.iewIdleCycles              0                       # Number of cycles IEW is idle
system.switch_cpus_1.iew.iewSquashCycles       314091                       # Number of cycles IEW is squashing
system.switch_cpus_1.iew.iewBlockCycles       1648407                       # Number of cycles IEW is blocking
system.switch_cpus_1.iew.iewUnblockCycles      1971737                       # Number of cycles IEW is unblocking
system.switch_cpus_1.iew.iewDispatchedInsts    213633857                       # Number of instructions dispatched to IQ
system.switch_cpus_1.iew.iewDispSquashedInsts        56422                       # Number of squashed instructions skipped by dispatch
system.switch_cpus_1.iew.iewDispLoadInsts     72284895                       # Number of dispatched load instructions
system.switch_cpus_1.iew.iewDispStoreInsts     13478609                       # Number of dispatched store instructions
system.switch_cpus_1.iew.iewDispNonSpecInsts            0                       # Number of dispatched non-speculative instructions
system.switch_cpus_1.iew.iewIQFullEvents        11235                       # Number of times the IQ has become full, causing a stall
system.switch_cpus_1.iew.iewLSQFullEvents      1964306                       # Number of times the LSQ has become full, causing a stall
system.switch_cpus_1.iew.memOrderViolationEvents        15908                       # Number of memory order violations
system.switch_cpus_1.iew.predictedTakenIncorrect       222847                       # Number of branches that were predicted taken incorrectly
system.switch_cpus_1.iew.predictedNotTakenIncorrect        80917                       # Number of branches that were predicted not taken incorrectly
system.switch_cpus_1.iew.branchMispredicts       303764                       # Number of branch mispredicts detected at execute
system.switch_cpus_1.iew.iewExecutedInsts    208862020                       # Number of executed instructions
system.switch_cpus_1.iew.iewExecLoadInsts     72018669                       # Number of load instructions executed
system.switch_cpus_1.iew.iewExecSquashedInsts       521098                       # Number of squashed instructions skipped in execute
system.switch_cpus_1.iew.exec_swp                   0                       # number of swp insts executed
system.switch_cpus_1.iew.exec_nop             1178428                       # number of nop insts executed
system.switch_cpus_1.iew.exec_refs           85139079                       # number of memory reference insts executed
system.switch_cpus_1.iew.exec_branches       15232378                       # Number of branches executed
system.switch_cpus_1.iew.exec_stores         13120410                       # Number of stores executed
system.switch_cpus_1.iew.exec_rate           2.630051                       # Inst execution rate
system.switch_cpus_1.iew.wb_sent            208142370                       # cumulative count of insts sent to commit
system.switch_cpus_1.iew.wb_count           207867876                       # cumulative count of insts written-back
system.switch_cpus_1.iew.wb_producers       134152749                       # num instructions producing a value
system.switch_cpus_1.iew.wb_consumers       163821694                       # num instructions consuming a value
system.switch_cpus_1.iew.wb_rate             2.617533                       # insts written-back per cycle
system.switch_cpus_1.iew.wb_fanout           0.818895                       # average fanout of values written-back
system.switch_cpus_1.commit.commitSquashedInsts     12063901                       # The number of squashed insts skipped by commit
system.switch_cpus_1.commit.branchMispredicts       274050                       # The number of times a branch was mispredicted
system.switch_cpus_1.commit.committed_per_cycle::samples     77371551                       # Number of insts commited each cycle
system.switch_cpus_1.commit.committed_per_cycle::mean     2.598702                       # Number of insts commited each cycle
system.switch_cpus_1.commit.committed_per_cycle::stdev     3.160760                       # Number of insts commited each cycle
system.switch_cpus_1.commit.committed_per_cycle::underflows            0      0.00%      0.00% # Number of insts commited each cycle
system.switch_cpus_1.commit.committed_per_cycle::0     34950633     45.17%     45.17% # Number of insts commited each cycle
system.switch_cpus_1.commit.committed_per_cycle::1      9207778     11.90%     57.07% # Number of insts commited each cycle
system.switch_cpus_1.commit.committed_per_cycle::2      4773010      6.17%     63.24% # Number of insts commited each cycle
system.switch_cpus_1.commit.committed_per_cycle::3      3490298      4.51%     67.75% # Number of insts commited each cycle
system.switch_cpus_1.commit.committed_per_cycle::4      2568390      3.32%     71.07% # Number of insts commited each cycle
system.switch_cpus_1.commit.committed_per_cycle::5      3570182      4.61%     75.69% # Number of insts commited each cycle
system.switch_cpus_1.commit.committed_per_cycle::6      1552718      2.01%     77.69% # Number of insts commited each cycle
system.switch_cpus_1.commit.committed_per_cycle::7      3668221      4.74%     82.43% # Number of insts commited each cycle
system.switch_cpus_1.commit.committed_per_cycle::8     13590321     17.57%    100.00% # Number of insts commited each cycle
system.switch_cpus_1.commit.committed_per_cycle::overflows            0      0.00%    100.00% # Number of insts commited each cycle
system.switch_cpus_1.commit.committed_per_cycle::min_value            0                       # Number of insts commited each cycle
system.switch_cpus_1.commit.committed_per_cycle::max_value            8                       # Number of insts commited each cycle
system.switch_cpus_1.commit.committed_per_cycle::total     77371551                       # Number of insts commited each cycle
system.switch_cpus_1.commit.committedInsts    201065585                       # Number of instructions committed
system.switch_cpus_1.commit.committedOps    201065585                       # Number of ops (including micro ops) committed
system.switch_cpus_1.commit.swp_count               0                       # Number of s/w prefetches committed
system.switch_cpus_1.commit.refs             82577871                       # Number of memory references committed
system.switch_cpus_1.commit.loads            69667449                       # Number of loads committed
system.switch_cpus_1.commit.membars                 0                       # Number of memory barriers committed
system.switch_cpus_1.commit.branches         14245931                       # Number of branches committed
system.switch_cpus_1.commit.fp_insts          1340565                       # Number of committed floating point instructions.
system.switch_cpus_1.commit.int_insts       198509910                       # Number of committed integer instructions.
system.switch_cpus_1.commit.function_calls      2072159                       # Number of function calls committed.
system.switch_cpus_1.commit.op_class_0::No_OpClass      1225977      0.61%      0.61% # Class of committed instruction
system.switch_cpus_1.commit.op_class_0::IntAlu    115514890     57.45%     58.06% # Class of committed instruction
system.switch_cpus_1.commit.op_class_0::IntMult       939115      0.47%     58.53% # Class of committed instruction
system.switch_cpus_1.commit.op_class_0::IntDiv            0      0.00%     58.53% # Class of committed instruction
system.switch_cpus_1.commit.op_class_0::FloatAdd       455806      0.23%     58.75% # Class of committed instruction
system.switch_cpus_1.commit.op_class_0::FloatCmp        10815      0.01%     58.76% # Class of committed instruction
system.switch_cpus_1.commit.op_class_0::FloatCvt       252849      0.13%     58.89% # Class of committed instruction
system.switch_cpus_1.commit.op_class_0::FloatMult         8058      0.00%     58.89% # Class of committed instruction
system.switch_cpus_1.commit.op_class_0::FloatMultAcc            0      0.00%     58.89% # Class of committed instruction
system.switch_cpus_1.commit.op_class_0::FloatDiv        80200      0.04%     58.93% # Class of committed instruction
system.switch_cpus_1.commit.op_class_0::FloatMisc            0      0.00%     58.93% # Class of committed instruction
system.switch_cpus_1.commit.op_class_0::FloatSqrt            4      0.00%     58.93% # Class of committed instruction
system.switch_cpus_1.commit.op_class_0::SimdAdd            0      0.00%     58.93% # Class of committed instruction
system.switch_cpus_1.commit.op_class_0::SimdAddAcc            0      0.00%     58.93% # Class of committed instruction
system.switch_cpus_1.commit.op_class_0::SimdAlu            0      0.00%     58.93% # Class of committed instruction
system.switch_cpus_1.commit.op_class_0::SimdCmp            0      0.00%     58.93% # Class of committed instruction
system.switch_cpus_1.commit.op_class_0::SimdCvt            0      0.00%     58.93% # Class of committed instruction
system.switch_cpus_1.commit.op_class_0::SimdMisc            0      0.00%     58.93% # Class of committed instruction
system.switch_cpus_1.commit.op_class_0::SimdMult            0      0.00%     58.93% # Class of committed instruction
system.switch_cpus_1.commit.op_class_0::SimdMultAcc            0      0.00%     58.93% # Class of committed instruction
system.switch_cpus_1.commit.op_class_0::SimdShift            0      0.00%     58.93% # Class of committed instruction
system.switch_cpus_1.commit.op_class_0::SimdShiftAcc            0      0.00%     58.93% # Class of committed instruction
system.switch_cpus_1.commit.op_class_0::SimdSqrt            0      0.00%     58.93% # Class of committed instruction
system.switch_cpus_1.commit.op_class_0::SimdFloatAdd            0      0.00%     58.93% # Class of committed instruction
system.switch_cpus_1.commit.op_class_0::SimdFloatAlu            0      0.00%     58.93% # Class of committed instruction
system.switch_cpus_1.commit.op_class_0::SimdFloatCmp            0      0.00%     58.93% # Class of committed instruction
system.switch_cpus_1.commit.op_class_0::SimdFloatCvt            0      0.00%     58.93% # Class of committed instruction
system.switch_cpus_1.commit.op_class_0::SimdFloatDiv            0      0.00%     58.93% # Class of committed instruction
system.switch_cpus_1.commit.op_class_0::SimdFloatMisc            0      0.00%     58.93% # Class of committed instruction
system.switch_cpus_1.commit.op_class_0::SimdFloatMult            0      0.00%     58.93% # Class of committed instruction
system.switch_cpus_1.commit.op_class_0::SimdFloatMultAcc            0      0.00%     58.93% # Class of committed instruction
system.switch_cpus_1.commit.op_class_0::SimdFloatSqrt            0      0.00%     58.93% # Class of committed instruction
system.switch_cpus_1.commit.op_class_0::MemRead     69394564     34.51%     93.44% # Class of committed instruction
system.switch_cpus_1.commit.op_class_0::MemWrite     12650474      6.29%     99.73% # Class of committed instruction
system.switch_cpus_1.commit.op_class_0::FloatMemRead       272885      0.14%     99.87% # Class of committed instruction
system.switch_cpus_1.commit.op_class_0::FloatMemWrite       259948      0.13%    100.00% # Class of committed instruction
system.switch_cpus_1.commit.op_class_0::IprAccess            0      0.00%    100.00% # Class of committed instruction
system.switch_cpus_1.commit.op_class_0::InstPrefetch            0      0.00%    100.00% # Class of committed instruction
system.switch_cpus_1.commit.op_class_0::total    201065585                       # Class of committed instruction
system.switch_cpus_1.commit.bw_lim_events     13590321                       # number cycles where commit BW limit reached
system.switch_cpus_1.rob.rob_reads          276545585                       # The number of ROB reads
system.switch_cpus_1.rob.rob_writes         427929259                       # The number of ROB writes
system.switch_cpus_1.timesIdled                 16519                       # Number of times that the entire CPU went into an idle state and unscheduled itself
system.switch_cpus_1.idleCycles                373978                       # Total number of cycles that the CPU has spent unscheduled due to idling
system.switch_cpus_1.committedInsts         200000000                       # Number of Instructions Simulated
system.switch_cpus_1.committedOps           200000000                       # Number of Ops (including micro ops) Simulated
system.switch_cpus_1.cpi                     0.397068                       # CPI: Cycles Per Instruction
system.switch_cpus_1.cpi_total               0.397068                       # CPI: Total CPI of All Threads
system.switch_cpus_1.ipc                     2.518458                       # IPC: Instructions Per Cycle
system.switch_cpus_1.ipc_total               2.518458                       # IPC: Total IPC of All Threads
system.switch_cpus_1.int_regfile_reads      304989370                       # number of integer regfile reads
system.switch_cpus_1.int_regfile_writes     180633870                       # number of integer regfile writes
system.switch_cpus_1.fp_regfile_reads          984514                       # number of floating regfile reads
system.switch_cpus_1.fp_regfile_writes         922815                       # number of floating regfile writes
system.switch_cpus_1.misc_regfile_reads        167195                       # number of misc regfile reads
system.switch_cpus_1.misc_regfile_writes        80196                       # number of misc regfile writes
system.tol3bus.snoop_filter.tot_requests      3293680                       # Total number of requests made to the snoop filter.
system.tol3bus.snoop_filter.hit_single_requests      1644554                       # Number of requests hitting in the snoop filter with a single holder of the requested data.
system.tol3bus.snoop_filter.hit_multi_requests            0                       # Number of requests hitting in the snoop filter with multiple (>1) holders of the requested data.
system.tol3bus.snoop_filter.tot_snoops            159                       # Total number of snoops made to the snoop filter.
system.tol3bus.snoop_filter.hit_single_snoops          159                       # Number of snoops hitting in the snoop filter with a single holder of the requested data.
system.tol3bus.snoop_filter.hit_multi_snoops            0                       # Number of snoops hitting in the snoop filter with multiple (>1) holders of the requested data.
system.tol3bus.pwrStateResidencyTicks::UNDEFINED 176570725388805                       # Cumulative time (in ticks) in various power states
system.tol3bus.trans_dist::ReadResp            979016                       # Transaction distribution
system.tol3bus.trans_dist::WritebackDirty      1274834                       # Transaction distribution
system.tol3bus.trans_dist::CleanEvict          397284                       # Transaction distribution
system.tol3bus.trans_dist::UpgradeReq               3                       # Transaction distribution
system.tol3bus.trans_dist::UpgradeResp              3                       # Transaction distribution
system.tol3bus.trans_dist::ReadExReq           670110                       # Transaction distribution
system.tol3bus.trans_dist::ReadExResp          670110                       # Transaction distribution
system.tol3bus.trans_dist::ReadSharedReq       979016                       # Transaction distribution
system.tol3bus.pkt_count_system.cpu.l2.mem_side::system.l3.cpu_side      4942809                       # Packet count per connected master and slave (bytes)
system.tol3bus.pkt_size_system.cpu.l2.mem_side::system.l3.cpu_side    186180160                       # Cumulative packet size per connected master and slave (bytes)
system.tol3bus.snoops                           27567                       # Total snoops (count)
system.tol3bus.snoopTraffic                    953280                       # Total snoop traffic (bytes)
system.tol3bus.snoop_fanout::samples          1676696                       # Request fanout histogram
system.tol3bus.snoop_fanout::mean            0.000095                       # Request fanout histogram
system.tol3bus.snoop_fanout::stdev           0.009738                       # Request fanout histogram
system.tol3bus.snoop_fanout::underflows             0      0.00%      0.00% # Request fanout histogram
system.tol3bus.snoop_fanout::0                1676537     99.99%     99.99% # Request fanout histogram
system.tol3bus.snoop_fanout::1                    159      0.01%    100.00% # Request fanout histogram
system.tol3bus.snoop_fanout::overflows              0      0.00%    100.00% # Request fanout histogram
system.tol3bus.snoop_fanout::min_value              0                       # Request fanout histogram
system.tol3bus.snoop_fanout::max_value              1                       # Request fanout histogram
system.tol3bus.snoop_fanout::total            1676696                       # Request fanout histogram
system.tol3bus.reqLayer0.occupancy         1516355127                       # Layer occupancy (ticks)
system.tol3bus.reqLayer0.utilization              0.1                       # Layer utilization (%)
system.tol3bus.respLayer0.occupancy        1098318915                       # Layer occupancy (ticks)
system.tol3bus.respLayer0.utilization             0.1                       # Layer utilization (%)

---------- End Simulation Statistics   ----------
