
---------- Begin Simulation Statistics ----------
sim_seconds                                  1.061788                       # Number of seconds simulated
sim_ticks                                1061787659823                       # Number of ticks simulated
final_tick                               31073201820873                       # Number of ticks from beginning of simulation (restored from checkpoints and never reset)
sim_freq                                 1000000000000                       # Frequency of simulated ticks
host_inst_rate                                 564059                       # Simulator instruction rate (inst/s)
host_op_rate                                   564059                       # Simulator op (including micro ops) rate (op/s)
host_tick_rate                              499092645                       # Simulator tick rate (ticks/s)
host_mem_usage                                2424272                       # Number of bytes of host memory used
host_seconds                                  2127.44                       # Real time elapsed on the host
sim_insts                                  1200000007                       # Number of instructions simulated
sim_ops                                    1200000007                       # Number of ops (including micro ops) simulated
system.voltage_domain.voltage                       1                       # Voltage in Volts
system.clk_domain.clock                          1000                       # Clock period in ticks
system.mem_ctrls0.pwrStateResidencyTicks::UNDEFINED 31073201820873                       # Cumulative time (in ticks) in various power states
system.mem_ctrls0.bytes_read::cpu.inst             64                       # Number of bytes read from this memory
system.mem_ctrls0.bytes_read::switch_cpus.inst       138496                       # Number of bytes read from this memory
system.mem_ctrls0.bytes_read::switch_cpus.data      3609792                       # Number of bytes read from this memory
system.mem_ctrls0.bytes_read::switch_cpus_1.inst       104000                       # Number of bytes read from this memory
system.mem_ctrls0.bytes_read::switch_cpus_1.data      1547136                       # Number of bytes read from this memory
system.mem_ctrls0.bytes_read::total           5399488                       # Number of bytes read from this memory
system.mem_ctrls0.bytes_inst_read::cpu.inst           64                       # Number of instructions bytes read from this memory
system.mem_ctrls0.bytes_inst_read::switch_cpus.inst       138496                       # Number of instructions bytes read from this memory
system.mem_ctrls0.bytes_inst_read::switch_cpus_1.inst       104000                       # Number of instructions bytes read from this memory
system.mem_ctrls0.bytes_inst_read::total       242560                       # Number of instructions bytes read from this memory
system.mem_ctrls0.bytes_written::writebacks       709376                       # Number of bytes written to this memory
system.mem_ctrls0.bytes_written::total         709376                       # Number of bytes written to this memory
system.mem_ctrls0.num_reads::cpu.inst               1                       # Number of read requests responded to by this memory
system.mem_ctrls0.num_reads::switch_cpus.inst         2164                       # Number of read requests responded to by this memory
system.mem_ctrls0.num_reads::switch_cpus.data        56403                       # Number of read requests responded to by this memory
system.mem_ctrls0.num_reads::switch_cpus_1.inst         1625                       # Number of read requests responded to by this memory
system.mem_ctrls0.num_reads::switch_cpus_1.data        24174                       # Number of read requests responded to by this memory
system.mem_ctrls0.num_reads::total              84367                       # Number of read requests responded to by this memory
system.mem_ctrls0.num_writes::writebacks        11084                       # Number of write requests responded to by this memory
system.mem_ctrls0.num_writes::total             11084                       # Number of write requests responded to by this memory
system.mem_ctrls0.bw_read::cpu.inst                60                       # Total read bandwidth from this memory (bytes/s)
system.mem_ctrls0.bw_read::switch_cpus.inst       130437                       # Total read bandwidth from this memory (bytes/s)
system.mem_ctrls0.bw_read::switch_cpus.data      3399731                       # Total read bandwidth from this memory (bytes/s)
system.mem_ctrls0.bw_read::switch_cpus_1.inst        97948                       # Total read bandwidth from this memory (bytes/s)
system.mem_ctrls0.bw_read::switch_cpus_1.data      1457105                       # Total read bandwidth from this memory (bytes/s)
system.mem_ctrls0.bw_read::total              5085280                       # Total read bandwidth from this memory (bytes/s)
system.mem_ctrls0.bw_inst_read::cpu.inst           60                       # Instruction read bandwidth from this memory (bytes/s)
system.mem_ctrls0.bw_inst_read::switch_cpus.inst       130437                       # Instruction read bandwidth from this memory (bytes/s)
system.mem_ctrls0.bw_inst_read::switch_cpus_1.inst        97948                       # Instruction read bandwidth from this memory (bytes/s)
system.mem_ctrls0.bw_inst_read::total          228445                       # Instruction read bandwidth from this memory (bytes/s)
system.mem_ctrls0.bw_write::writebacks         668096                       # Write bandwidth from this memory (bytes/s)
system.mem_ctrls0.bw_write::total              668096                       # Write bandwidth from this memory (bytes/s)
system.mem_ctrls0.bw_total::writebacks         668096                       # Total bandwidth to/from this memory (bytes/s)
system.mem_ctrls0.bw_total::cpu.inst               60                       # Total bandwidth to/from this memory (bytes/s)
system.mem_ctrls0.bw_total::switch_cpus.inst       130437                       # Total bandwidth to/from this memory (bytes/s)
system.mem_ctrls0.bw_total::switch_cpus.data      3399731                       # Total bandwidth to/from this memory (bytes/s)
system.mem_ctrls0.bw_total::switch_cpus_1.inst        97948                       # Total bandwidth to/from this memory (bytes/s)
system.mem_ctrls0.bw_total::switch_cpus_1.data      1457105                       # Total bandwidth to/from this memory (bytes/s)
system.mem_ctrls0.bw_total::total             5753376                       # Total bandwidth to/from this memory (bytes/s)
system.mem_ctrls0.readReqs                      84367                       # Number of read requests accepted
system.mem_ctrls0.writeReqs                     11084                       # Number of write requests accepted
system.mem_ctrls0.readBursts                    84367                       # Number of DRAM read bursts, including those serviced by the write queue
system.mem_ctrls0.writeBursts                   11084                       # Number of DRAM write bursts, including those merged in the write queue
system.mem_ctrls0.bytesReadDRAM               5395584                       # Total number of bytes read from DRAM
system.mem_ctrls0.bytesReadWrQ                   3904                       # Total number of bytes read from write queue
system.mem_ctrls0.bytesWritten                 708224                       # Total number of bytes written to DRAM
system.mem_ctrls0.bytesReadSys                5399488                       # Total read bytes from the system interface side
system.mem_ctrls0.bytesWrittenSys              709376                       # Total written bytes from the system interface side
system.mem_ctrls0.servicedByWrQ                    61                       # Number of DRAM read bursts serviced by the write queue
system.mem_ctrls0.mergedWrBursts                    0                       # Number of DRAM write bursts merged with an existing one
system.mem_ctrls0.neitherReadNorWriteReqs            0                       # Number of requests that are neither read nor write
system.mem_ctrls0.perBankRdBursts::0             5307                       # Per bank write bursts
system.mem_ctrls0.perBankRdBursts::1             5365                       # Per bank write bursts
system.mem_ctrls0.perBankRdBursts::2             5912                       # Per bank write bursts
system.mem_ctrls0.perBankRdBursts::3             5585                       # Per bank write bursts
system.mem_ctrls0.perBankRdBursts::4             5128                       # Per bank write bursts
system.mem_ctrls0.perBankRdBursts::5             5140                       # Per bank write bursts
system.mem_ctrls0.perBankRdBursts::6             4765                       # Per bank write bursts
system.mem_ctrls0.perBankRdBursts::7             4893                       # Per bank write bursts
system.mem_ctrls0.perBankRdBursts::8             4927                       # Per bank write bursts
system.mem_ctrls0.perBankRdBursts::9             5047                       # Per bank write bursts
system.mem_ctrls0.perBankRdBursts::10            4870                       # Per bank write bursts
system.mem_ctrls0.perBankRdBursts::11            4719                       # Per bank write bursts
system.mem_ctrls0.perBankRdBursts::12            5901                       # Per bank write bursts
system.mem_ctrls0.perBankRdBursts::13            5465                       # Per bank write bursts
system.mem_ctrls0.perBankRdBursts::14            5547                       # Per bank write bursts
system.mem_ctrls0.perBankRdBursts::15            5735                       # Per bank write bursts
system.mem_ctrls0.perBankWrBursts::0              710                       # Per bank write bursts
system.mem_ctrls0.perBankWrBursts::1              745                       # Per bank write bursts
system.mem_ctrls0.perBankWrBursts::2              826                       # Per bank write bursts
system.mem_ctrls0.perBankWrBursts::3              721                       # Per bank write bursts
system.mem_ctrls0.perBankWrBursts::4              664                       # Per bank write bursts
system.mem_ctrls0.perBankWrBursts::5              637                       # Per bank write bursts
system.mem_ctrls0.perBankWrBursts::6              533                       # Per bank write bursts
system.mem_ctrls0.perBankWrBursts::7              646                       # Per bank write bursts
system.mem_ctrls0.perBankWrBursts::8              643                       # Per bank write bursts
system.mem_ctrls0.perBankWrBursts::9              523                       # Per bank write bursts
system.mem_ctrls0.perBankWrBursts::10             549                       # Per bank write bursts
system.mem_ctrls0.perBankWrBursts::11             645                       # Per bank write bursts
system.mem_ctrls0.perBankWrBursts::12             910                       # Per bank write bursts
system.mem_ctrls0.perBankWrBursts::13             763                       # Per bank write bursts
system.mem_ctrls0.perBankWrBursts::14             819                       # Per bank write bursts
system.mem_ctrls0.perBankWrBursts::15             732                       # Per bank write bursts
system.mem_ctrls0.numRdRetry                        0                       # Number of times read queue was full causing retry
system.mem_ctrls0.numWrRetry                        0                       # Number of times write queue was full causing retry
system.mem_ctrls0.totGap                 1061781143346                       # Total gap between requests
system.mem_ctrls0.readPktSize::0                    0                       # Read request sizes (log2)
system.mem_ctrls0.readPktSize::1                    0                       # Read request sizes (log2)
system.mem_ctrls0.readPktSize::2                    0                       # Read request sizes (log2)
system.mem_ctrls0.readPktSize::3                    0                       # Read request sizes (log2)
system.mem_ctrls0.readPktSize::4                    0                       # Read request sizes (log2)
system.mem_ctrls0.readPktSize::5                    0                       # Read request sizes (log2)
system.mem_ctrls0.readPktSize::6                84367                       # Read request sizes (log2)
system.mem_ctrls0.writePktSize::0                   0                       # Write request sizes (log2)
system.mem_ctrls0.writePktSize::1                   0                       # Write request sizes (log2)
system.mem_ctrls0.writePktSize::2                   0                       # Write request sizes (log2)
system.mem_ctrls0.writePktSize::3                   0                       # Write request sizes (log2)
system.mem_ctrls0.writePktSize::4                   0                       # Write request sizes (log2)
system.mem_ctrls0.writePktSize::5                   0                       # Write request sizes (log2)
system.mem_ctrls0.writePktSize::6               11084                       # Write request sizes (log2)
system.mem_ctrls0.rdQLenPdf::0                  81809                       # What read queue length does an incoming req see
system.mem_ctrls0.rdQLenPdf::1                   2392                       # What read queue length does an incoming req see
system.mem_ctrls0.rdQLenPdf::2                     94                       # What read queue length does an incoming req see
system.mem_ctrls0.rdQLenPdf::3                     11                       # What read queue length does an incoming req see
system.mem_ctrls0.rdQLenPdf::4                      0                       # What read queue length does an incoming req see
system.mem_ctrls0.rdQLenPdf::5                      0                       # What read queue length does an incoming req see
system.mem_ctrls0.rdQLenPdf::6                      0                       # What read queue length does an incoming req see
system.mem_ctrls0.rdQLenPdf::7                      0                       # What read queue length does an incoming req see
system.mem_ctrls0.rdQLenPdf::8                      0                       # What read queue length does an incoming req see
system.mem_ctrls0.rdQLenPdf::9                      0                       # What read queue length does an incoming req see
system.mem_ctrls0.rdQLenPdf::10                     0                       # What read queue length does an incoming req see
system.mem_ctrls0.rdQLenPdf::11                     0                       # What read queue length does an incoming req see
system.mem_ctrls0.rdQLenPdf::12                     0                       # What read queue length does an incoming req see
system.mem_ctrls0.rdQLenPdf::13                     0                       # What read queue length does an incoming req see
system.mem_ctrls0.rdQLenPdf::14                     0                       # What read queue length does an incoming req see
system.mem_ctrls0.rdQLenPdf::15                     0                       # What read queue length does an incoming req see
system.mem_ctrls0.rdQLenPdf::16                     0                       # What read queue length does an incoming req see
system.mem_ctrls0.rdQLenPdf::17                     0                       # What read queue length does an incoming req see
system.mem_ctrls0.rdQLenPdf::18                     0                       # What read queue length does an incoming req see
system.mem_ctrls0.rdQLenPdf::19                     0                       # What read queue length does an incoming req see
system.mem_ctrls0.rdQLenPdf::20                     0                       # What read queue length does an incoming req see
system.mem_ctrls0.rdQLenPdf::21                     0                       # What read queue length does an incoming req see
system.mem_ctrls0.rdQLenPdf::22                     0                       # What read queue length does an incoming req see
system.mem_ctrls0.rdQLenPdf::23                     0                       # What read queue length does an incoming req see
system.mem_ctrls0.rdQLenPdf::24                     0                       # What read queue length does an incoming req see
system.mem_ctrls0.rdQLenPdf::25                     0                       # What read queue length does an incoming req see
system.mem_ctrls0.rdQLenPdf::26                     0                       # What read queue length does an incoming req see
system.mem_ctrls0.rdQLenPdf::27                     0                       # What read queue length does an incoming req see
system.mem_ctrls0.rdQLenPdf::28                     0                       # What read queue length does an incoming req see
system.mem_ctrls0.rdQLenPdf::29                     0                       # What read queue length does an incoming req see
system.mem_ctrls0.rdQLenPdf::30                     0                       # What read queue length does an incoming req see
system.mem_ctrls0.rdQLenPdf::31                     0                       # What read queue length does an incoming req see
system.mem_ctrls0.wrQLenPdf::0                      2                       # What write queue length does an incoming req see
system.mem_ctrls0.wrQLenPdf::1                      2                       # What write queue length does an incoming req see
system.mem_ctrls0.wrQLenPdf::2                      2                       # What write queue length does an incoming req see
system.mem_ctrls0.wrQLenPdf::3                      2                       # What write queue length does an incoming req see
system.mem_ctrls0.wrQLenPdf::4                      2                       # What write queue length does an incoming req see
system.mem_ctrls0.wrQLenPdf::5                      2                       # What write queue length does an incoming req see
system.mem_ctrls0.wrQLenPdf::6                      2                       # What write queue length does an incoming req see
system.mem_ctrls0.wrQLenPdf::7                      2                       # What write queue length does an incoming req see
system.mem_ctrls0.wrQLenPdf::8                      2                       # What write queue length does an incoming req see
system.mem_ctrls0.wrQLenPdf::9                      2                       # What write queue length does an incoming req see
system.mem_ctrls0.wrQLenPdf::10                     2                       # What write queue length does an incoming req see
system.mem_ctrls0.wrQLenPdf::11                     2                       # What write queue length does an incoming req see
system.mem_ctrls0.wrQLenPdf::12                     2                       # What write queue length does an incoming req see
system.mem_ctrls0.wrQLenPdf::13                     2                       # What write queue length does an incoming req see
system.mem_ctrls0.wrQLenPdf::14                     2                       # What write queue length does an incoming req see
system.mem_ctrls0.wrQLenPdf::15                   398                       # What write queue length does an incoming req see
system.mem_ctrls0.wrQLenPdf::16                   403                       # What write queue length does an incoming req see
system.mem_ctrls0.wrQLenPdf::17                   613                       # What write queue length does an incoming req see
system.mem_ctrls0.wrQLenPdf::18                   641                       # What write queue length does an incoming req see
system.mem_ctrls0.wrQLenPdf::19                   642                       # What write queue length does an incoming req see
system.mem_ctrls0.wrQLenPdf::20                   646                       # What write queue length does an incoming req see
system.mem_ctrls0.wrQLenPdf::21                   643                       # What write queue length does an incoming req see
system.mem_ctrls0.wrQLenPdf::22                   642                       # What write queue length does an incoming req see
system.mem_ctrls0.wrQLenPdf::23                   642                       # What write queue length does an incoming req see
system.mem_ctrls0.wrQLenPdf::24                   640                       # What write queue length does an incoming req see
system.mem_ctrls0.wrQLenPdf::25                   642                       # What write queue length does an incoming req see
system.mem_ctrls0.wrQLenPdf::26                   640                       # What write queue length does an incoming req see
system.mem_ctrls0.wrQLenPdf::27                   642                       # What write queue length does an incoming req see
system.mem_ctrls0.wrQLenPdf::28                   644                       # What write queue length does an incoming req see
system.mem_ctrls0.wrQLenPdf::29                   647                       # What write queue length does an incoming req see
system.mem_ctrls0.wrQLenPdf::30                   650                       # What write queue length does an incoming req see
system.mem_ctrls0.wrQLenPdf::31                   639                       # What write queue length does an incoming req see
system.mem_ctrls0.wrQLenPdf::32                   639                       # What write queue length does an incoming req see
system.mem_ctrls0.wrQLenPdf::33                     1                       # What write queue length does an incoming req see
system.mem_ctrls0.wrQLenPdf::34                     0                       # What write queue length does an incoming req see
system.mem_ctrls0.wrQLenPdf::35                     0                       # What write queue length does an incoming req see
system.mem_ctrls0.wrQLenPdf::36                     0                       # What write queue length does an incoming req see
system.mem_ctrls0.wrQLenPdf::37                     0                       # What write queue length does an incoming req see
system.mem_ctrls0.wrQLenPdf::38                     0                       # What write queue length does an incoming req see
system.mem_ctrls0.wrQLenPdf::39                     0                       # What write queue length does an incoming req see
system.mem_ctrls0.wrQLenPdf::40                     0                       # What write queue length does an incoming req see
system.mem_ctrls0.wrQLenPdf::41                     0                       # What write queue length does an incoming req see
system.mem_ctrls0.wrQLenPdf::42                     0                       # What write queue length does an incoming req see
system.mem_ctrls0.wrQLenPdf::43                     0                       # What write queue length does an incoming req see
system.mem_ctrls0.wrQLenPdf::44                     0                       # What write queue length does an incoming req see
system.mem_ctrls0.wrQLenPdf::45                     0                       # What write queue length does an incoming req see
system.mem_ctrls0.wrQLenPdf::46                     0                       # What write queue length does an incoming req see
system.mem_ctrls0.wrQLenPdf::47                     0                       # What write queue length does an incoming req see
system.mem_ctrls0.wrQLenPdf::48                     0                       # What write queue length does an incoming req see
system.mem_ctrls0.wrQLenPdf::49                     0                       # What write queue length does an incoming req see
system.mem_ctrls0.wrQLenPdf::50                     0                       # What write queue length does an incoming req see
system.mem_ctrls0.wrQLenPdf::51                     0                       # What write queue length does an incoming req see
system.mem_ctrls0.wrQLenPdf::52                     0                       # What write queue length does an incoming req see
system.mem_ctrls0.wrQLenPdf::53                     0                       # What write queue length does an incoming req see
system.mem_ctrls0.wrQLenPdf::54                     0                       # What write queue length does an incoming req see
system.mem_ctrls0.wrQLenPdf::55                     0                       # What write queue length does an incoming req see
system.mem_ctrls0.wrQLenPdf::56                     0                       # What write queue length does an incoming req see
system.mem_ctrls0.wrQLenPdf::57                     0                       # What write queue length does an incoming req see
system.mem_ctrls0.wrQLenPdf::58                     0                       # What write queue length does an incoming req see
system.mem_ctrls0.wrQLenPdf::59                     0                       # What write queue length does an incoming req see
system.mem_ctrls0.wrQLenPdf::60                     0                       # What write queue length does an incoming req see
system.mem_ctrls0.wrQLenPdf::61                     0                       # What write queue length does an incoming req see
system.mem_ctrls0.wrQLenPdf::62                     0                       # What write queue length does an incoming req see
system.mem_ctrls0.wrQLenPdf::63                     0                       # What write queue length does an incoming req see
system.mem_ctrls0.bytesPerActivate::samples        45404                       # Bytes accessed per row activation
system.mem_ctrls0.bytesPerActivate::mean   134.433266                       # Bytes accessed per row activation
system.mem_ctrls0.bytesPerActivate::gmean    95.874405                       # Bytes accessed per row activation
system.mem_ctrls0.bytesPerActivate::stdev   164.491779                       # Bytes accessed per row activation
system.mem_ctrls0.bytesPerActivate::0-127        30609     67.41%     67.41% # Bytes accessed per row activation
system.mem_ctrls0.bytesPerActivate::128-255         8966     19.75%     87.16% # Bytes accessed per row activation
system.mem_ctrls0.bytesPerActivate::256-383         2215      4.88%     92.04% # Bytes accessed per row activation
system.mem_ctrls0.bytesPerActivate::384-511         1304      2.87%     94.91% # Bytes accessed per row activation
system.mem_ctrls0.bytesPerActivate::512-639          822      1.81%     96.72% # Bytes accessed per row activation
system.mem_ctrls0.bytesPerActivate::640-767          482      1.06%     97.78% # Bytes accessed per row activation
system.mem_ctrls0.bytesPerActivate::768-895          317      0.70%     98.48% # Bytes accessed per row activation
system.mem_ctrls0.bytesPerActivate::896-1023          206      0.45%     98.94% # Bytes accessed per row activation
system.mem_ctrls0.bytesPerActivate::1024-1151          483      1.06%    100.00% # Bytes accessed per row activation
system.mem_ctrls0.bytesPerActivate::total        45404                       # Bytes accessed per row activation
system.mem_ctrls0.rdPerTurnAround::samples          640                       # Reads before turning the bus around for writes
system.mem_ctrls0.rdPerTurnAround::mean    131.720313                       # Reads before turning the bus around for writes
system.mem_ctrls0.rdPerTurnAround::gmean    76.110653                       # Reads before turning the bus around for writes
system.mem_ctrls0.rdPerTurnAround::stdev  1078.508462                       # Reads before turning the bus around for writes
system.mem_ctrls0.rdPerTurnAround::0-1023          639     99.84%     99.84% # Reads before turning the bus around for writes
system.mem_ctrls0.rdPerTurnAround::26624-27647            1      0.16%    100.00% # Reads before turning the bus around for writes
system.mem_ctrls0.rdPerTurnAround::total          640                       # Reads before turning the bus around for writes
system.mem_ctrls0.wrPerTurnAround::samples          640                       # Writes before turning the bus around for reads
system.mem_ctrls0.wrPerTurnAround::mean     17.290625                       # Writes before turning the bus around for reads
system.mem_ctrls0.wrPerTurnAround::gmean    17.259847                       # Writes before turning the bus around for reads
system.mem_ctrls0.wrPerTurnAround::stdev     1.026979                       # Writes before turning the bus around for reads
system.mem_ctrls0.wrPerTurnAround::16             237     37.03%     37.03% # Writes before turning the bus around for reads
system.mem_ctrls0.wrPerTurnAround::17               6      0.94%     37.97% # Writes before turning the bus around for reads
system.mem_ctrls0.wrPerTurnAround::18             376     58.75%     96.72% # Writes before turning the bus around for reads
system.mem_ctrls0.wrPerTurnAround::19              18      2.81%     99.53% # Writes before turning the bus around for reads
system.mem_ctrls0.wrPerTurnAround::20               2      0.31%     99.84% # Writes before turning the bus around for reads
system.mem_ctrls0.wrPerTurnAround::22               1      0.16%    100.00% # Writes before turning the bus around for reads
system.mem_ctrls0.wrPerTurnAround::total          640                       # Writes before turning the bus around for reads
system.mem_ctrls0.totQLat                  3431029559                       # Total ticks spent queuing
system.mem_ctrls0.totMemAccLat             5011767059                       # Total ticks spent from burst creation until serviced by the DRAM
system.mem_ctrls0.totBusLat                 421530000                       # Total ticks spent in databus transfers
system.mem_ctrls0.avgQLat                    40697.34                       # Average queueing delay per DRAM burst
system.mem_ctrls0.avgBusLat                   5000.00                       # Average bus latency per DRAM burst
system.mem_ctrls0.avgMemAccLat               59447.34                       # Average memory access latency per DRAM burst
system.mem_ctrls0.avgRdBW                        5.08                       # Average DRAM read bandwidth in MiByte/s
system.mem_ctrls0.avgWrBW                        0.67                       # Average achieved write bandwidth in MiByte/s
system.mem_ctrls0.avgRdBWSys                     5.09                       # Average system read bandwidth in MiByte/s
system.mem_ctrls0.avgWrBWSys                     0.67                       # Average system write bandwidth in MiByte/s
system.mem_ctrls0.peakBW                     12800.00                       # Theoretical peak bandwidth in MiByte/s
system.mem_ctrls0.busUtil                        0.04                       # Data bus utilization in percentage
system.mem_ctrls0.busUtilRead                    0.04                       # Data bus utilization in percentage for reads
system.mem_ctrls0.busUtilWrite                   0.01                       # Data bus utilization in percentage for writes
system.mem_ctrls0.avgRdQLen                      1.01                       # Average read queue length when enqueuing
system.mem_ctrls0.avgWrQLen                     17.61                       # Average write queue length when enqueuing
system.mem_ctrls0.readRowHits                   48266                       # Number of row buffer hits during reads
system.mem_ctrls0.writeRowHits                   1702                       # Number of row buffer hits during writes
system.mem_ctrls0.readRowHitRate                57.25                       # Row buffer hit rate for reads
system.mem_ctrls0.writeRowHitRate               15.36                       # Row buffer hit rate for writes
system.mem_ctrls0.avgGap                  11123834.67                       # Average gap between requests
system.mem_ctrls0.pageHitRate                   52.38                       # Row buffer hit rate, read and write combined
system.mem_ctrls0_0.actEnergy               164962560                       # Energy for activate commands per rank (pJ)
system.mem_ctrls0_0.preEnergy                87679680                       # Energy for precharge commands per rank (pJ)
system.mem_ctrls0_0.readEnergy              300558300                       # Energy for read commands per rank (pJ)
system.mem_ctrls0_0.writeEnergy              28616040                       # Energy for write commands per rank (pJ)
system.mem_ctrls0_0.refreshEnergy        6017940240.000001                       # Energy for refresh commands per rank (pJ)
system.mem_ctrls0_0.actBackEnergy          2094266070                       # Energy for active background per rank (pJ)
system.mem_ctrls0_0.preBackEnergy           298772640                       # Energy for precharge background per rank (pJ)
system.mem_ctrls0_0.actPowerDownEnergy    16460617320                       # Energy for active power-down per rank (pJ)
system.mem_ctrls0_0.prePowerDownEnergy     8089876320                       # Energy for precharge power-down per rank (pJ)
system.mem_ctrls0_0.selfRefreshEnergy    240864404400                       # Energy for self refresh per rank (pJ)
system.mem_ctrls0_0.totalEnergy          274409376990                       # Total energy per rank (pJ)
system.mem_ctrls0_0.averagePower           258.440917                       # Core power per rank (mW)
system.mem_ctrls0_0.totalIdleTime        1056405004735                       # Total Idle time Per DRAM Rank
system.mem_ctrls0_0.memoryStateTime::IDLE    544563110                       # Time in different power states
system.mem_ctrls0_0.memoryStateTime::REF   2557144000                       # Time in different power states
system.mem_ctrls0_0.memoryStateTime::SREF 999247942323                       # Time in different power states
system.mem_ctrls0_0.memoryStateTime::PRE_PDN  21067475619                       # Time in different power states
system.mem_ctrls0_0.memoryStateTime::ACT   2272681921                       # Time in different power states
system.mem_ctrls0_0.memoryStateTime::ACT_PDN  36097852850                       # Time in different power states
system.mem_ctrls0_1.actEnergy               159222000                       # Energy for activate commands per rank (pJ)
system.mem_ctrls0_1.preEnergy                84628500                       # Energy for precharge commands per rank (pJ)
system.mem_ctrls0_1.readEnergy              301386540                       # Energy for read commands per rank (pJ)
system.mem_ctrls0_1.writeEnergy              29148480                       # Energy for write commands per rank (pJ)
system.mem_ctrls0_1.refreshEnergy        6000115680.000001                       # Energy for refresh commands per rank (pJ)
system.mem_ctrls0_1.actBackEnergy          2152957830                       # Energy for active background per rank (pJ)
system.mem_ctrls0_1.preBackEnergy           299556000                       # Energy for precharge background per rank (pJ)
system.mem_ctrls0_1.actPowerDownEnergy    16308503130                       # Energy for active power-down per rank (pJ)
system.mem_ctrls0_1.prePowerDownEnergy     7933524480                       # Energy for precharge power-down per rank (pJ)
system.mem_ctrls0_1.selfRefreshEnergy    241040043315                       # Energy for self refresh per rank (pJ)
system.mem_ctrls0_1.totalEnergy          274310750655                       # Total energy per rank (pJ)
system.mem_ctrls0_1.averagePower           258.348030                       # Core power per rank (mW)
system.mem_ctrls0_1.totalIdleTime        1056277255751                       # Total Idle time Per DRAM Rank
system.mem_ctrls0_1.memoryStateTime::IDLE    548469535                       # Time in different power states
system.mem_ctrls0_1.memoryStateTime::REF   2549922000                       # Time in different power states
system.mem_ctrls0_1.memoryStateTime::SREF 999858006823                       # Time in different power states
system.mem_ctrls0_1.memoryStateTime::PRE_PDN  20660295064                       # Time in different power states
system.mem_ctrls0_1.memoryStateTime::ACT   2406640583                       # Time in different power states
system.mem_ctrls0_1.memoryStateTime::ACT_PDN  35764325818                       # Time in different power states
system.mem_ctrls1.pwrStateResidencyTicks::UNDEFINED 31073201820873                       # Cumulative time (in ticks) in various power states
system.mem_ctrls1.bytes_read::cpu.inst            192                       # Number of bytes read from this memory
system.mem_ctrls1.bytes_read::cpu.data            192                       # Number of bytes read from this memory
system.mem_ctrls1.bytes_read::switch_cpus.inst       136832                       # Number of bytes read from this memory
system.mem_ctrls1.bytes_read::switch_cpus.data      3611776                       # Number of bytes read from this memory
system.mem_ctrls1.bytes_read::switch_cpus_1.inst       107392                       # Number of bytes read from this memory
system.mem_ctrls1.bytes_read::switch_cpus_1.data      1561600                       # Number of bytes read from this memory
system.mem_ctrls1.bytes_read::total           5417984                       # Number of bytes read from this memory
system.mem_ctrls1.bytes_inst_read::cpu.inst          192                       # Number of instructions bytes read from this memory
system.mem_ctrls1.bytes_inst_read::switch_cpus.inst       136832                       # Number of instructions bytes read from this memory
system.mem_ctrls1.bytes_inst_read::switch_cpus_1.inst       107392                       # Number of instructions bytes read from this memory
system.mem_ctrls1.bytes_inst_read::total       244416                       # Number of instructions bytes read from this memory
system.mem_ctrls1.bytes_written::writebacks       707200                       # Number of bytes written to this memory
system.mem_ctrls1.bytes_written::total         707200                       # Number of bytes written to this memory
system.mem_ctrls1.num_reads::cpu.inst               3                       # Number of read requests responded to by this memory
system.mem_ctrls1.num_reads::cpu.data               3                       # Number of read requests responded to by this memory
system.mem_ctrls1.num_reads::switch_cpus.inst         2138                       # Number of read requests responded to by this memory
system.mem_ctrls1.num_reads::switch_cpus.data        56434                       # Number of read requests responded to by this memory
system.mem_ctrls1.num_reads::switch_cpus_1.inst         1678                       # Number of read requests responded to by this memory
system.mem_ctrls1.num_reads::switch_cpus_1.data        24400                       # Number of read requests responded to by this memory
system.mem_ctrls1.num_reads::total              84656                       # Number of read requests responded to by this memory
system.mem_ctrls1.num_writes::writebacks        11050                       # Number of write requests responded to by this memory
system.mem_ctrls1.num_writes::total             11050                       # Number of write requests responded to by this memory
system.mem_ctrls1.bw_read::cpu.inst               181                       # Total read bandwidth from this memory (bytes/s)
system.mem_ctrls1.bw_read::cpu.data               181                       # Total read bandwidth from this memory (bytes/s)
system.mem_ctrls1.bw_read::switch_cpus.inst       128869                       # Total read bandwidth from this memory (bytes/s)
system.mem_ctrls1.bw_read::switch_cpus.data      3401599                       # Total read bandwidth from this memory (bytes/s)
system.mem_ctrls1.bw_read::switch_cpus_1.inst       101143                       # Total read bandwidth from this memory (bytes/s)
system.mem_ctrls1.bw_read::switch_cpus_1.data      1470727                       # Total read bandwidth from this memory (bytes/s)
system.mem_ctrls1.bw_read::total              5102700                       # Total read bandwidth from this memory (bytes/s)
system.mem_ctrls1.bw_inst_read::cpu.inst          181                       # Instruction read bandwidth from this memory (bytes/s)
system.mem_ctrls1.bw_inst_read::switch_cpus.inst       128869                       # Instruction read bandwidth from this memory (bytes/s)
system.mem_ctrls1.bw_inst_read::switch_cpus_1.inst       101143                       # Instruction read bandwidth from this memory (bytes/s)
system.mem_ctrls1.bw_inst_read::total          230193                       # Instruction read bandwidth from this memory (bytes/s)
system.mem_ctrls1.bw_write::writebacks         666047                       # Write bandwidth from this memory (bytes/s)
system.mem_ctrls1.bw_write::total              666047                       # Write bandwidth from this memory (bytes/s)
system.mem_ctrls1.bw_total::writebacks         666047                       # Total bandwidth to/from this memory (bytes/s)
system.mem_ctrls1.bw_total::cpu.inst              181                       # Total bandwidth to/from this memory (bytes/s)
system.mem_ctrls1.bw_total::cpu.data              181                       # Total bandwidth to/from this memory (bytes/s)
system.mem_ctrls1.bw_total::switch_cpus.inst       128869                       # Total bandwidth to/from this memory (bytes/s)
system.mem_ctrls1.bw_total::switch_cpus.data      3401599                       # Total bandwidth to/from this memory (bytes/s)
system.mem_ctrls1.bw_total::switch_cpus_1.inst       101143                       # Total bandwidth to/from this memory (bytes/s)
system.mem_ctrls1.bw_total::switch_cpus_1.data      1470727                       # Total bandwidth to/from this memory (bytes/s)
system.mem_ctrls1.bw_total::total             5768747                       # Total bandwidth to/from this memory (bytes/s)
system.mem_ctrls1.readReqs                      84656                       # Number of read requests accepted
system.mem_ctrls1.writeReqs                     11050                       # Number of write requests accepted
system.mem_ctrls1.readBursts                    84656                       # Number of DRAM read bursts, including those serviced by the write queue
system.mem_ctrls1.writeBursts                   11050                       # Number of DRAM write bursts, including those merged in the write queue
system.mem_ctrls1.bytesReadDRAM               5414208                       # Total number of bytes read from DRAM
system.mem_ctrls1.bytesReadWrQ                   3776                       # Total number of bytes read from write queue
system.mem_ctrls1.bytesWritten                 706112                       # Total number of bytes written to DRAM
system.mem_ctrls1.bytesReadSys                5417984                       # Total read bytes from the system interface side
system.mem_ctrls1.bytesWrittenSys              707200                       # Total written bytes from the system interface side
system.mem_ctrls1.servicedByWrQ                    59                       # Number of DRAM read bursts serviced by the write queue
system.mem_ctrls1.mergedWrBursts                    0                       # Number of DRAM write bursts merged with an existing one
system.mem_ctrls1.neitherReadNorWriteReqs            0                       # Number of requests that are neither read nor write
system.mem_ctrls1.perBankRdBursts::0             5298                       # Per bank write bursts
system.mem_ctrls1.perBankRdBursts::1             5406                       # Per bank write bursts
system.mem_ctrls1.perBankRdBursts::2             5847                       # Per bank write bursts
system.mem_ctrls1.perBankRdBursts::3             5560                       # Per bank write bursts
system.mem_ctrls1.perBankRdBursts::4             5175                       # Per bank write bursts
system.mem_ctrls1.perBankRdBursts::5             5079                       # Per bank write bursts
system.mem_ctrls1.perBankRdBursts::6             4845                       # Per bank write bursts
system.mem_ctrls1.perBankRdBursts::7             4829                       # Per bank write bursts
system.mem_ctrls1.perBankRdBursts::8             5107                       # Per bank write bursts
system.mem_ctrls1.perBankRdBursts::9             5016                       # Per bank write bursts
system.mem_ctrls1.perBankRdBursts::10            4905                       # Per bank write bursts
system.mem_ctrls1.perBankRdBursts::11            4716                       # Per bank write bursts
system.mem_ctrls1.perBankRdBursts::12            5939                       # Per bank write bursts
system.mem_ctrls1.perBankRdBursts::13            5534                       # Per bank write bursts
system.mem_ctrls1.perBankRdBursts::14            5549                       # Per bank write bursts
system.mem_ctrls1.perBankRdBursts::15            5792                       # Per bank write bursts
system.mem_ctrls1.perBankWrBursts::0              692                       # Per bank write bursts
system.mem_ctrls1.perBankWrBursts::1              713                       # Per bank write bursts
system.mem_ctrls1.perBankWrBursts::2              742                       # Per bank write bursts
system.mem_ctrls1.perBankWrBursts::3              757                       # Per bank write bursts
system.mem_ctrls1.perBankWrBursts::4              718                       # Per bank write bursts
system.mem_ctrls1.perBankWrBursts::5              624                       # Per bank write bursts
system.mem_ctrls1.perBankWrBursts::6              506                       # Per bank write bursts
system.mem_ctrls1.perBankWrBursts::7              650                       # Per bank write bursts
system.mem_ctrls1.perBankWrBursts::8              715                       # Per bank write bursts
system.mem_ctrls1.perBankWrBursts::9              495                       # Per bank write bursts
system.mem_ctrls1.perBankWrBursts::10             572                       # Per bank write bursts
system.mem_ctrls1.perBankWrBursts::11             608                       # Per bank write bursts
system.mem_ctrls1.perBankWrBursts::12             836                       # Per bank write bursts
system.mem_ctrls1.perBankWrBursts::13             796                       # Per bank write bursts
system.mem_ctrls1.perBankWrBursts::14             818                       # Per bank write bursts
system.mem_ctrls1.perBankWrBursts::15             791                       # Per bank write bursts
system.mem_ctrls1.numRdRetry                        0                       # Number of times read queue was full causing retry
system.mem_ctrls1.numWrRetry                        0                       # Number of times write queue was full causing retry
system.mem_ctrls1.totGap                 1061785799019                       # Total gap between requests
system.mem_ctrls1.readPktSize::0                    0                       # Read request sizes (log2)
system.mem_ctrls1.readPktSize::1                    0                       # Read request sizes (log2)
system.mem_ctrls1.readPktSize::2                    0                       # Read request sizes (log2)
system.mem_ctrls1.readPktSize::3                    0                       # Read request sizes (log2)
system.mem_ctrls1.readPktSize::4                    0                       # Read request sizes (log2)
system.mem_ctrls1.readPktSize::5                    0                       # Read request sizes (log2)
system.mem_ctrls1.readPktSize::6                84656                       # Read request sizes (log2)
system.mem_ctrls1.writePktSize::0                   0                       # Write request sizes (log2)
system.mem_ctrls1.writePktSize::1                   0                       # Write request sizes (log2)
system.mem_ctrls1.writePktSize::2                   0                       # Write request sizes (log2)
system.mem_ctrls1.writePktSize::3                   0                       # Write request sizes (log2)
system.mem_ctrls1.writePktSize::4                   0                       # Write request sizes (log2)
system.mem_ctrls1.writePktSize::5                   0                       # Write request sizes (log2)
system.mem_ctrls1.writePktSize::6               11050                       # Write request sizes (log2)
system.mem_ctrls1.rdQLenPdf::0                  82143                       # What read queue length does an incoming req see
system.mem_ctrls1.rdQLenPdf::1                   2336                       # What read queue length does an incoming req see
system.mem_ctrls1.rdQLenPdf::2                    107                       # What read queue length does an incoming req see
system.mem_ctrls1.rdQLenPdf::3                     11                       # What read queue length does an incoming req see
system.mem_ctrls1.rdQLenPdf::4                      0                       # What read queue length does an incoming req see
system.mem_ctrls1.rdQLenPdf::5                      0                       # What read queue length does an incoming req see
system.mem_ctrls1.rdQLenPdf::6                      0                       # What read queue length does an incoming req see
system.mem_ctrls1.rdQLenPdf::7                      0                       # What read queue length does an incoming req see
system.mem_ctrls1.rdQLenPdf::8                      0                       # What read queue length does an incoming req see
system.mem_ctrls1.rdQLenPdf::9                      0                       # What read queue length does an incoming req see
system.mem_ctrls1.rdQLenPdf::10                     0                       # What read queue length does an incoming req see
system.mem_ctrls1.rdQLenPdf::11                     0                       # What read queue length does an incoming req see
system.mem_ctrls1.rdQLenPdf::12                     0                       # What read queue length does an incoming req see
system.mem_ctrls1.rdQLenPdf::13                     0                       # What read queue length does an incoming req see
system.mem_ctrls1.rdQLenPdf::14                     0                       # What read queue length does an incoming req see
system.mem_ctrls1.rdQLenPdf::15                     0                       # What read queue length does an incoming req see
system.mem_ctrls1.rdQLenPdf::16                     0                       # What read queue length does an incoming req see
system.mem_ctrls1.rdQLenPdf::17                     0                       # What read queue length does an incoming req see
system.mem_ctrls1.rdQLenPdf::18                     0                       # What read queue length does an incoming req see
system.mem_ctrls1.rdQLenPdf::19                     0                       # What read queue length does an incoming req see
system.mem_ctrls1.rdQLenPdf::20                     0                       # What read queue length does an incoming req see
system.mem_ctrls1.rdQLenPdf::21                     0                       # What read queue length does an incoming req see
system.mem_ctrls1.rdQLenPdf::22                     0                       # What read queue length does an incoming req see
system.mem_ctrls1.rdQLenPdf::23                     0                       # What read queue length does an incoming req see
system.mem_ctrls1.rdQLenPdf::24                     0                       # What read queue length does an incoming req see
system.mem_ctrls1.rdQLenPdf::25                     0                       # What read queue length does an incoming req see
system.mem_ctrls1.rdQLenPdf::26                     0                       # What read queue length does an incoming req see
system.mem_ctrls1.rdQLenPdf::27                     0                       # What read queue length does an incoming req see
system.mem_ctrls1.rdQLenPdf::28                     0                       # What read queue length does an incoming req see
system.mem_ctrls1.rdQLenPdf::29                     0                       # What read queue length does an incoming req see
system.mem_ctrls1.rdQLenPdf::30                     0                       # What read queue length does an incoming req see
system.mem_ctrls1.rdQLenPdf::31                     0                       # What read queue length does an incoming req see
system.mem_ctrls1.wrQLenPdf::0                      2                       # What write queue length does an incoming req see
system.mem_ctrls1.wrQLenPdf::1                      2                       # What write queue length does an incoming req see
system.mem_ctrls1.wrQLenPdf::2                      2                       # What write queue length does an incoming req see
system.mem_ctrls1.wrQLenPdf::3                      2                       # What write queue length does an incoming req see
system.mem_ctrls1.wrQLenPdf::4                      2                       # What write queue length does an incoming req see
system.mem_ctrls1.wrQLenPdf::5                      2                       # What write queue length does an incoming req see
system.mem_ctrls1.wrQLenPdf::6                      2                       # What write queue length does an incoming req see
system.mem_ctrls1.wrQLenPdf::7                      2                       # What write queue length does an incoming req see
system.mem_ctrls1.wrQLenPdf::8                      2                       # What write queue length does an incoming req see
system.mem_ctrls1.wrQLenPdf::9                      2                       # What write queue length does an incoming req see
system.mem_ctrls1.wrQLenPdf::10                     2                       # What write queue length does an incoming req see
system.mem_ctrls1.wrQLenPdf::11                     2                       # What write queue length does an incoming req see
system.mem_ctrls1.wrQLenPdf::12                     2                       # What write queue length does an incoming req see
system.mem_ctrls1.wrQLenPdf::13                     2                       # What write queue length does an incoming req see
system.mem_ctrls1.wrQLenPdf::14                     2                       # What write queue length does an incoming req see
system.mem_ctrls1.wrQLenPdf::15                   411                       # What write queue length does an incoming req see
system.mem_ctrls1.wrQLenPdf::16                   420                       # What write queue length does an incoming req see
system.mem_ctrls1.wrQLenPdf::17                   624                       # What write queue length does an incoming req see
system.mem_ctrls1.wrQLenPdf::18                   635                       # What write queue length does an incoming req see
system.mem_ctrls1.wrQLenPdf::19                   639                       # What write queue length does an incoming req see
system.mem_ctrls1.wrQLenPdf::20                   637                       # What write queue length does an incoming req see
system.mem_ctrls1.wrQLenPdf::21                   637                       # What write queue length does an incoming req see
system.mem_ctrls1.wrQLenPdf::22                   638                       # What write queue length does an incoming req see
system.mem_ctrls1.wrQLenPdf::23                   636                       # What write queue length does an incoming req see
system.mem_ctrls1.wrQLenPdf::24                   637                       # What write queue length does an incoming req see
system.mem_ctrls1.wrQLenPdf::25                   637                       # What write queue length does an incoming req see
system.mem_ctrls1.wrQLenPdf::26                   637                       # What write queue length does an incoming req see
system.mem_ctrls1.wrQLenPdf::27                   638                       # What write queue length does an incoming req see
system.mem_ctrls1.wrQLenPdf::28                   641                       # What write queue length does an incoming req see
system.mem_ctrls1.wrQLenPdf::29                   642                       # What write queue length does an incoming req see
system.mem_ctrls1.wrQLenPdf::30                   639                       # What write queue length does an incoming req see
system.mem_ctrls1.wrQLenPdf::31                   635                       # What write queue length does an incoming req see
system.mem_ctrls1.wrQLenPdf::32                   635                       # What write queue length does an incoming req see
system.mem_ctrls1.wrQLenPdf::33                     2                       # What write queue length does an incoming req see
system.mem_ctrls1.wrQLenPdf::34                     0                       # What write queue length does an incoming req see
system.mem_ctrls1.wrQLenPdf::35                     0                       # What write queue length does an incoming req see
system.mem_ctrls1.wrQLenPdf::36                     0                       # What write queue length does an incoming req see
system.mem_ctrls1.wrQLenPdf::37                     0                       # What write queue length does an incoming req see
system.mem_ctrls1.wrQLenPdf::38                     0                       # What write queue length does an incoming req see
system.mem_ctrls1.wrQLenPdf::39                     0                       # What write queue length does an incoming req see
system.mem_ctrls1.wrQLenPdf::40                     0                       # What write queue length does an incoming req see
system.mem_ctrls1.wrQLenPdf::41                     0                       # What write queue length does an incoming req see
system.mem_ctrls1.wrQLenPdf::42                     0                       # What write queue length does an incoming req see
system.mem_ctrls1.wrQLenPdf::43                     0                       # What write queue length does an incoming req see
system.mem_ctrls1.wrQLenPdf::44                     0                       # What write queue length does an incoming req see
system.mem_ctrls1.wrQLenPdf::45                     0                       # What write queue length does an incoming req see
system.mem_ctrls1.wrQLenPdf::46                     0                       # What write queue length does an incoming req see
system.mem_ctrls1.wrQLenPdf::47                     0                       # What write queue length does an incoming req see
system.mem_ctrls1.wrQLenPdf::48                     0                       # What write queue length does an incoming req see
system.mem_ctrls1.wrQLenPdf::49                     0                       # What write queue length does an incoming req see
system.mem_ctrls1.wrQLenPdf::50                     0                       # What write queue length does an incoming req see
system.mem_ctrls1.wrQLenPdf::51                     0                       # What write queue length does an incoming req see
system.mem_ctrls1.wrQLenPdf::52                     0                       # What write queue length does an incoming req see
system.mem_ctrls1.wrQLenPdf::53                     0                       # What write queue length does an incoming req see
system.mem_ctrls1.wrQLenPdf::54                     0                       # What write queue length does an incoming req see
system.mem_ctrls1.wrQLenPdf::55                     0                       # What write queue length does an incoming req see
system.mem_ctrls1.wrQLenPdf::56                     0                       # What write queue length does an incoming req see
system.mem_ctrls1.wrQLenPdf::57                     0                       # What write queue length does an incoming req see
system.mem_ctrls1.wrQLenPdf::58                     0                       # What write queue length does an incoming req see
system.mem_ctrls1.wrQLenPdf::59                     0                       # What write queue length does an incoming req see
system.mem_ctrls1.wrQLenPdf::60                     0                       # What write queue length does an incoming req see
system.mem_ctrls1.wrQLenPdf::61                     0                       # What write queue length does an incoming req see
system.mem_ctrls1.wrQLenPdf::62                     0                       # What write queue length does an incoming req see
system.mem_ctrls1.wrQLenPdf::63                     0                       # What write queue length does an incoming req see
system.mem_ctrls1.bytesPerActivate::samples        45685                       # Bytes accessed per row activation
system.mem_ctrls1.bytesPerActivate::mean   133.966422                       # Bytes accessed per row activation
system.mem_ctrls1.bytesPerActivate::gmean    95.610117                       # Bytes accessed per row activation
system.mem_ctrls1.bytesPerActivate::stdev   163.941561                       # Bytes accessed per row activation
system.mem_ctrls1.bytesPerActivate::0-127        30886     67.61%     67.61% # Bytes accessed per row activation
system.mem_ctrls1.bytesPerActivate::128-255         8953     19.60%     87.20% # Bytes accessed per row activation
system.mem_ctrls1.bytesPerActivate::256-383         2215      4.85%     92.05% # Bytes accessed per row activation
system.mem_ctrls1.bytesPerActivate::384-511         1316      2.88%     94.93% # Bytes accessed per row activation
system.mem_ctrls1.bytesPerActivate::512-639          796      1.74%     96.68% # Bytes accessed per row activation
system.mem_ctrls1.bytesPerActivate::640-767          523      1.14%     97.82% # Bytes accessed per row activation
system.mem_ctrls1.bytesPerActivate::768-895          333      0.73%     98.55% # Bytes accessed per row activation
system.mem_ctrls1.bytesPerActivate::896-1023          185      0.40%     98.95% # Bytes accessed per row activation
system.mem_ctrls1.bytesPerActivate::1024-1151          478      1.05%    100.00% # Bytes accessed per row activation
system.mem_ctrls1.bytesPerActivate::total        45685                       # Bytes accessed per row activation
system.mem_ctrls1.rdPerTurnAround::samples          636                       # Reads before turning the bus around for writes
system.mem_ctrls1.rdPerTurnAround::mean    133.011006                       # Reads before turning the bus around for writes
system.mem_ctrls1.rdPerTurnAround::gmean    77.495784                       # Reads before turning the bus around for writes
system.mem_ctrls1.rdPerTurnAround::stdev  1079.021940                       # Reads before turning the bus around for writes
system.mem_ctrls1.rdPerTurnAround::0-1023          635     99.84%     99.84% # Reads before turning the bus around for writes
system.mem_ctrls1.rdPerTurnAround::26624-27647            1      0.16%    100.00% # Reads before turning the bus around for writes
system.mem_ctrls1.rdPerTurnAround::total          636                       # Reads before turning the bus around for writes
system.mem_ctrls1.wrPerTurnAround::samples          636                       # Writes before turning the bus around for reads
system.mem_ctrls1.wrPerTurnAround::mean     17.347484                       # Writes before turning the bus around for reads
system.mem_ctrls1.wrPerTurnAround::gmean    17.314084                       # Writes before turning the bus around for reads
system.mem_ctrls1.wrPerTurnAround::stdev     1.104184                       # Writes before turning the bus around for reads
system.mem_ctrls1.wrPerTurnAround::16             218     34.28%     34.28% # Writes before turning the bus around for reads
system.mem_ctrls1.wrPerTurnAround::17               8      1.26%     35.53% # Writes before turning the bus around for reads
system.mem_ctrls1.wrPerTurnAround::18             394     61.95%     97.48% # Writes before turning the bus around for reads
system.mem_ctrls1.wrPerTurnAround::19              13      2.04%     99.53% # Writes before turning the bus around for reads
system.mem_ctrls1.wrPerTurnAround::20               2      0.31%     99.84% # Writes before turning the bus around for reads
system.mem_ctrls1.wrPerTurnAround::30               1      0.16%    100.00% # Writes before turning the bus around for reads
system.mem_ctrls1.wrPerTurnAround::total          636                       # Writes before turning the bus around for reads
system.mem_ctrls1.totQLat                  3428935447                       # Total ticks spent queuing
system.mem_ctrls1.totMemAccLat             5015129197                       # Total ticks spent from burst creation until serviced by the DRAM
system.mem_ctrls1.totBusLat                 422985000                       # Total ticks spent in databus transfers
system.mem_ctrls1.avgQLat                    40532.59                       # Average queueing delay per DRAM burst
system.mem_ctrls1.avgBusLat                   5000.00                       # Average bus latency per DRAM burst
system.mem_ctrls1.avgMemAccLat               59282.59                       # Average memory access latency per DRAM burst
system.mem_ctrls1.avgRdBW                        5.10                       # Average DRAM read bandwidth in MiByte/s
system.mem_ctrls1.avgWrBW                        0.67                       # Average achieved write bandwidth in MiByte/s
system.mem_ctrls1.avgRdBWSys                     5.10                       # Average system read bandwidth in MiByte/s
system.mem_ctrls1.avgWrBWSys                     0.67                       # Average system write bandwidth in MiByte/s
system.mem_ctrls1.peakBW                     12800.00                       # Theoretical peak bandwidth in MiByte/s
system.mem_ctrls1.busUtil                        0.05                       # Data bus utilization in percentage
system.mem_ctrls1.busUtilRead                    0.04                       # Data bus utilization in percentage for reads
system.mem_ctrls1.busUtilWrite                   0.01                       # Data bus utilization in percentage for writes
system.mem_ctrls1.avgRdQLen                      1.01                       # Average read queue length when enqueuing
system.mem_ctrls1.avgWrQLen                     17.92                       # Average write queue length when enqueuing
system.mem_ctrls1.readRowHits                   48285                       # Number of row buffer hits during reads
system.mem_ctrls1.writeRowHits                   1659                       # Number of row buffer hits during writes
system.mem_ctrls1.readRowHitRate                57.08                       # Row buffer hit rate for reads
system.mem_ctrls1.writeRowHitRate               15.01                       # Row buffer hit rate for writes
system.mem_ctrls1.avgGap                  11094244.86                       # Average gap between requests
system.mem_ctrls1.pageHitRate                   52.22                       # Row buffer hit rate, read and write combined
system.mem_ctrls1_0.actEnergy               164455620                       # Energy for activate commands per rank (pJ)
system.mem_ctrls1_0.preEnergy                87406440                       # Energy for precharge commands per rank (pJ)
system.mem_ctrls1_0.readEnergy              300158460                       # Energy for read commands per rank (pJ)
system.mem_ctrls1_0.writeEnergy              28198440                       # Energy for write commands per rank (pJ)
system.mem_ctrls1_0.refreshEnergy        6003188880.000001                       # Energy for refresh commands per rank (pJ)
system.mem_ctrls1_0.actBackEnergy          2133051720                       # Energy for active background per rank (pJ)
system.mem_ctrls1_0.preBackEnergy           297672000                       # Energy for precharge background per rank (pJ)
system.mem_ctrls1_0.actPowerDownEnergy    16393720410                       # Energy for active power-down per rank (pJ)
system.mem_ctrls1_0.prePowerDownEnergy     7993272480                       # Energy for precharge power-down per rank (pJ)
system.mem_ctrls1_0.selfRefreshEnergy    240950175915                       # Energy for self refresh per rank (pJ)
system.mem_ctrls1_0.totalEnergy          274352949345                       # Total energy per rank (pJ)
system.mem_ctrls1_0.averagePower           258.387773                       # Core power per rank (mW)
system.mem_ctrls1_0.totalIdleTime        1056330135682                       # Total Idle time Per DRAM Rank
system.mem_ctrls1_0.memoryStateTime::IDLE    542248232                       # Time in different power states
system.mem_ctrls1_0.memoryStateTime::REF   2551102000                       # Time in different power states
system.mem_ctrls1_0.memoryStateTime::SREF 999564100244                       # Time in different power states
system.mem_ctrls1_0.memoryStateTime::PRE_PDN  20815796046                       # Time in different power states
system.mem_ctrls1_0.memoryStateTime::ACT   2362983830                       # Time in different power states
system.mem_ctrls1_0.memoryStateTime::ACT_PDN  35951429471                       # Time in different power states
system.mem_ctrls1_1.actEnergy               161742420                       # Energy for activate commands per rank (pJ)
system.mem_ctrls1_1.preEnergy                85968135                       # Energy for precharge commands per rank (pJ)
system.mem_ctrls1_1.readEnergy              303864120                       # Energy for read commands per rank (pJ)
system.mem_ctrls1_1.writeEnergy              29393820                       # Energy for write commands per rank (pJ)
system.mem_ctrls1_1.refreshEnergy        6020398800.000001                       # Energy for refresh commands per rank (pJ)
system.mem_ctrls1_1.actBackEnergy          2165591310                       # Energy for active background per rank (pJ)
system.mem_ctrls1_1.preBackEnergy           299842560                       # Energy for precharge background per rank (pJ)
system.mem_ctrls1_1.actPowerDownEnergy    16454734920                       # Energy for active power-down per rank (pJ)
system.mem_ctrls1_1.prePowerDownEnergy     7912272480                       # Energy for precharge power-down per rank (pJ)
system.mem_ctrls1_1.selfRefreshEnergy    240966596985                       # Energy for self refresh per rank (pJ)
system.mem_ctrls1_1.totalEnergy          274401783930                       # Total energy per rank (pJ)
system.mem_ctrls1_1.averagePower           258.433766                       # Core power per rank (mW)
system.mem_ctrls1_1.totalIdleTime        1056248147613                       # Total Idle time Per DRAM Rank
system.mem_ctrls1_1.memoryStateTime::IDLE    547277106                       # Time in different power states
system.mem_ctrls1_1.memoryStateTime::REF   2558472000                       # Time in different power states
system.mem_ctrls1_1.memoryStateTime::SREF 999564809323                       # Time in different power states
system.mem_ctrls1_1.memoryStateTime::PRE_PDN  20604878448                       # Time in different power states
system.mem_ctrls1_1.memoryStateTime::ACT   2427334252                       # Time in different power states
system.mem_ctrls1_1.memoryStateTime::ACT_PDN  36084888694                       # Time in different power states
system.pwrStateResidencyTicks::UNDEFINED 31073201820873                       # Cumulative time (in ticks) in various power states
system.cpu.branchPred.lookups                       6                       # Number of BP lookups
system.cpu.branchPred.condPredicted                 3                       # Number of conditional branches predicted
system.cpu.branchPred.condIncorrect                 3                       # Number of conditional branches incorrect
system.cpu.branchPred.BTBLookups                    3                       # Number of BTB lookups
system.cpu.branchPred.BTBHits                       0                       # Number of BTB hits
system.cpu.branchPred.BTBCorrect                    0                       # Number of correct BTB predictions (this stat may not work properly.
system.cpu.branchPred.BTBHitPct              0.000000                       # BTB Hit Percentage
system.cpu.branchPred.usedRAS                       0                       # Number of times the RAS was used to get a target.
system.cpu.branchPred.RASInCorrect                  0                       # Number of incorrect RAS predictions.
system.cpu.branchPred.indirectLookups               1                       # Number of indirect predictor lookups.
system.cpu.branchPred.indirectHits                  0                       # Number of indirect target hits.
system.cpu.branchPred.indirectMisses                1                       # Number of indirect misses.
system.cpu.branchPredindirectMispredicted            1                       # Number of mispredicted indirect branches.
system.cpu_voltage_domain.voltage                   1                       # Voltage in Volts
system.cpu_clk_domain.clock                       333                       # Clock period in ticks
system.cpu.dtb.fetch_hits                           0                       # ITB hits
system.cpu.dtb.fetch_misses                         0                       # ITB misses
system.cpu.dtb.fetch_acv                            0                       # ITB acv
system.cpu.dtb.fetch_accesses                       0                       # ITB accesses
system.cpu.dtb.read_hits                            5                       # DTB read hits
system.cpu.dtb.read_misses                          0                       # DTB read misses
system.cpu.dtb.read_acv                             0                       # DTB read access violations
system.cpu.dtb.read_accesses                        5                       # DTB read accesses
system.cpu.dtb.write_hits                           0                       # DTB write hits
system.cpu.dtb.write_misses                         0                       # DTB write misses
system.cpu.dtb.write_acv                            0                       # DTB write access violations
system.cpu.dtb.write_accesses                       0                       # DTB write accesses
system.cpu.dtb.data_hits                            5                       # DTB hits
system.cpu.dtb.data_misses                          0                       # DTB misses
system.cpu.dtb.data_acv                             0                       # DTB access violations
system.cpu.dtb.data_accesses                        5                       # DTB accesses
system.cpu.itb.fetch_hits                           7                       # ITB hits
system.cpu.itb.fetch_misses                         0                       # ITB misses
system.cpu.itb.fetch_acv                            0                       # ITB acv
system.cpu.itb.fetch_accesses                       7                       # ITB accesses
system.cpu.itb.read_hits                            0                       # DTB read hits
system.cpu.itb.read_misses                          0                       # DTB read misses
system.cpu.itb.read_acv                             0                       # DTB read access violations
system.cpu.itb.read_accesses                        0                       # DTB read accesses
system.cpu.itb.write_hits                           0                       # DTB write hits
system.cpu.itb.write_misses                         0                       # DTB write misses
system.cpu.itb.write_acv                            0                       # DTB write access violations
system.cpu.itb.write_accesses                       0                       # DTB write accesses
system.cpu.itb.data_hits                            0                       # DTB hits
system.cpu.itb.data_misses                          0                       # DTB misses
system.cpu.itb.data_acv                             0                       # DTB access violations
system.cpu.itb.data_accesses                        0                       # DTB accesses
system.cpu.workload.num_syscalls                    9                       # Number of system calls
system.cpu.pwrStateResidencyTicks::ON    1061787659823                       # Cumulative time (in ticks) in various power states
system.cpu.numCycles                              607                       # number of cpu cycles simulated
system.cpu.numWorkItemsStarted                      0                       # number of work items this cpu started
system.cpu.numWorkItemsCompleted                    0                       # number of work items this cpu completed
system.cpu.fetch.icacheStallCycles                 50                       # Number of cycles fetch is stalled on an Icache miss
system.cpu.fetch.Insts                             34                       # Number of instructions fetch has processed
system.cpu.fetch.Branches                           6                       # Number of branches that fetch encountered
system.cpu.fetch.Cycles                             5                       # Number of cycles fetch has run and was not squashing or blocked
system.cpu.fetch.SquashCycles                       9                       # Number of cycles fetch has spent squashing
system.cpu.fetch.PendingDrainCycles                 6                       # Number of cycles fetch has spent waiting on pipes to drain
system.cpu.fetch.CacheLines                         7                       # Number of cache lines fetched
system.cpu.fetch.IcacheSquashes                     4                       # Number of outstanding Icache misses that were squashed
system.cpu.fetch.rateDist::samples                 65                       # Number of instructions fetched each cycle (Total)
system.cpu.fetch.rateDist::mean              0.523077                       # Number of instructions fetched each cycle (Total)
system.cpu.fetch.rateDist::stdev             1.880057                       # Number of instructions fetched each cycle (Total)
system.cpu.fetch.rateDist::underflows               0      0.00%      0.00% # Number of instructions fetched each cycle (Total)
system.cpu.fetch.rateDist::0                       60     92.31%     92.31% # Number of instructions fetched each cycle (Total)
system.cpu.fetch.rateDist::1                        0      0.00%     92.31% # Number of instructions fetched each cycle (Total)
system.cpu.fetch.rateDist::2                        0      0.00%     92.31% # Number of instructions fetched each cycle (Total)
system.cpu.fetch.rateDist::3                        0      0.00%     92.31% # Number of instructions fetched each cycle (Total)
system.cpu.fetch.rateDist::4                        1      1.54%     93.85% # Number of instructions fetched each cycle (Total)
system.cpu.fetch.rateDist::5                        0      0.00%     93.85% # Number of instructions fetched each cycle (Total)
system.cpu.fetch.rateDist::6                        1      1.54%     95.38% # Number of instructions fetched each cycle (Total)
system.cpu.fetch.rateDist::7                        0      0.00%     95.38% # Number of instructions fetched each cycle (Total)
system.cpu.fetch.rateDist::8                        3      4.62%    100.00% # Number of instructions fetched each cycle (Total)
system.cpu.fetch.rateDist::overflows                0      0.00%    100.00% # Number of instructions fetched each cycle (Total)
system.cpu.fetch.rateDist::min_value                0                       # Number of instructions fetched each cycle (Total)
system.cpu.fetch.rateDist::max_value                8                       # Number of instructions fetched each cycle (Total)
[...]
system.switch_cpus_1.iq.int_inst_queue_wakeup_accesses    235693952                       # Number of integer instruction queue wakeup accesses
system.switch_cpus_1.iq.fp_inst_queue_reads       483343                       # Number of floating instruction queue reads
system.switch_cpus_1.iq.fp_inst_queue_writes       349353                       # Number of floating instruction queue writes
system.switch_cpus_1.iq.fp_inst_queue_wakeup_accesses       213143                       # Number of floating instruction queue wakeup accesses
system.switch_cpus_1.iq.int_alu_accesses    249254143                       # Number of integer alu accesses
system.switch_cpus_1.iq.fp_alu_accesses        248393                       # Number of floating point alu accesses
system.switch_cpus_1.iew.lsq.thread0.forwLoads      8578017                       # Number of loads that had data forwarded from stores
system.switch_cpus_1.iew.lsq.thread0.invAddrLoads            0                       # Number of loads ignored due to an invalid address
system.switch_cpus_1.iew.lsq.thread0.squashedLoads     24833341                       # Number of loads squashed
system.switch_cpus_1.iew.lsq.thread0.ignoredResponses        43563                       # Number of memory responses ignored because the instruction is squashed
system.switch_cpus_1.iew.lsq.thread0.memOrderViolation        82253                       # Number of memory ordering violations
system.switch_cpus_1.iew.lsq.thread0.squashedStores     10672631                       # Number of stores squashed
system.switch_cpus_1.iew.lsq.thread0.invAddrSwpfs            0                       # Number of software prefetches ignored due to an invalid address
system.switch_cpus_1.iew.lsq.thread0.blockedLoads            0                       # Number of blocked loads due to partial load-store forwarding
system.switch_cpus_1.iew.lsq.thread0.rescheduledLoads           45                       # Number of loads that were rescheduled
system.switch_cpus_1.iew.lsq.thread0.cacheBlocked       167093                       # Number of times an access to memory failed due to the cache being blocked
system.switch_cpus_1.iew.iewIdleCycles              0                       # Number of cycles IEW is idle
system.switch_cpus_1.iew.iewSquashCycles      2081820                       # Number of cycles IEW is squashing
system.switch_cpus_1.iew.iewBlockCycles      15061643                       # Number of cycles IEW is blocking
system.switch_cpus_1.iew.iewUnblockCycles      9325113                       # Number of cycles IEW is unblocking
system.switch_cpus_1.iew.iewDispatchedInsts    281056006                       # Number of instructions dispatched to IQ
system.switch_cpus_1.iew.iewDispSquashedInsts       652320                       # Number of squashed instructions skipped by dispatch
system.switch_cpus_1.iew.iewDispLoadInsts     89940869                       # Number of dispatched load instructions
system.switch_cpus_1.iew.iewDispStoreInsts     38844592                       # Number of dispatched store instructions
system.switch_cpus_1.iew.iewDispNonSpecInsts        84465                       # Number of dispatched non-speculative instructions
system.switch_cpus_1.iew.iewIQFullEvents       342242                       # Number of times the IQ has become full, causing a stall
system.switch_cpus_1.iew.iewLSQFullEvents      9007950                       # Number of times the LSQ has become full, causing a stall
system.switch_cpus_1.iew.memOrderViolationEvents        82253                       # Number of memory order violations
system.switch_cpus_1.iew.predictedTakenIncorrect       940099                       # Number of branches that were predicted taken incorrectly
system.switch_cpus_1.iew.predictedNotTakenIncorrect       736990                       # Number of branches that were predicted not taken incorrectly
system.switch_cpus_1.iew.branchMispredicts      1677089                       # Number of branch mispredicts detected at execute
system.switch_cpus_1.iew.iewExecutedInsts    239295244                       # Number of executed instructions
system.switch_cpus_1.iew.iewExecLoadInsts     78343285                       # Number of load instructions executed
system.switch_cpus_1.iew.iewExecSquashedInsts      2958619                       # Number of squashed instructions skipped in execute
system.switch_cpus_1.iew.exec_swp                   0                       # number of swp insts executed
system.switch_cpus_1.iew.exec_nop             6954173                       # number of nop insts executed
system.switch_cpus_1.iew.exec_refs          112545456                       # number of memory reference insts executed
system.switch_cpus_1.iew.exec_branches       39856167                       # Number of branches executed
system.switch_cpus_1.iew.exec_stores         34202171                       # Number of stores executed
system.switch_cpus_1.iew.exec_rate           1.280774                       # Inst execution rate
system.switch_cpus_1.iew.wb_sent            237831885                       # cumulative count of insts sent to commit
system.switch_cpus_1.iew.wb_count           235907095                       # cumulative count of insts written-back
system.switch_cpus_1.iew.wb_producers       131566985                       # num instructions producing a value
system.switch_cpus_1.iew.wb_consumers       175157722                       # num instructions consuming a value
system.switch_cpus_1.iew.wb_rate             1.262639                       # insts written-back per cycle
system.switch_cpus_1.iew.wb_fanout           0.751134                       # average fanout of values written-back
system.switch_cpus_1.commit.commitSquashedInsts     68051310                       # The number of squashed insts skipped by commit
system.switch_cpus_1.commit.commitNonSpecStalls       131982                       # The number of times commit has been forced to stall to communicate backwards
system.switch_cpus_1.commit.branchMispredicts      1461804                       # The number of times a branch was mispredicted
system.switch_cpus_1.commit.committed_per_cycle::samples    168082306                       # Number of insts commited each cycle
system.switch_cpus_1.commit.committed_per_cycle::mean     1.218272                       # Number of insts commited each cycle
system.switch_cpus_1.commit.committed_per_cycle::stdev     2.288108                       # Number of insts commited each cycle
system.switch_cpus_1.commit.committed_per_cycle::underflows            0      0.00%      0.00% # Number of insts commited each cycle
system.switch_cpus_1.commit.committed_per_cycle::0    106672616     63.46%     63.46% # Number of insts commited each cycle
system.switch_cpus_1.commit.committed_per_cycle::1     25504573     15.17%     78.64% # Number of insts commited each cycle
system.switch_cpus_1.commit.committed_per_cycle::2      9035229      5.38%     84.01% # Number of insts commited each cycle
system.switch_cpus_1.commit.committed_per_cycle::3      4127323      2.46%     86.47% # Number of insts commited each cycle
system.switch_cpus_1.commit.committed_per_cycle::4      3881558      2.31%     88.78% # Number of insts commited each cycle
system.switch_cpus_1.commit.committed_per_cycle::5      3303600      1.97%     90.74% # Number of insts commited each cycle
system.switch_cpus_1.commit.committed_per_cycle::6      2823288      1.68%     92.42% # Number of insts commited each cycle
system.switch_cpus_1.commit.committed_per_cycle::7      2043867      1.22%     93.64% # Number of insts commited each cycle
system.switch_cpus_1.commit.committed_per_cycle::8     10690252      6.36%    100.00% # Number of insts commited each cycle
system.switch_cpus_1.commit.committed_per_cycle::overflows            0      0.00%    100.00% # Number of insts commited each cycle
system.switch_cpus_1.commit.committed_per_cycle::min_value            0                       # Number of insts commited each cycle
system.switch_cpus_1.commit.committed_per_cycle::max_value            8                       # Number of insts commited each cycle
system.switch_cpus_1.commit.committed_per_cycle::total    168082306                       # Number of insts commited each cycle
system.switch_cpus_1.commit.committedInsts    204770045                       # Number of instructions committed
system.switch_cpus_1.commit.committedOps    204770045                       # Number of ops (including micro ops) committed
system.switch_cpus_1.commit.swp_count               0                       # Number of s/w prefetches committed
system.switch_cpus_1.commit.refs             93279484                       # Number of memory references committed
system.switch_cpus_1.commit.loads            65107527                       # Number of loads committed
system.switch_cpus_1.commit.membars             65988                       # Number of memory barriers committed
system.switch_cpus_1.commit.branches         33714070                       # Number of branches committed
system.switch_cpus_1.commit.fp_insts           159557                       # Number of committed floating point instructions.
system.switch_cpus_1.commit.int_insts       196778837                       # Number of committed integer instructions.
system.switch_cpus_1.commit.function_calls      2336737                       # Number of function calls committed.
system.switch_cpus_1.commit.op_class_0::No_OpClass      4770592      2.33%      2.33% # Class of committed instruction
system.switch_cpus_1.commit.op_class_0::IntAlu    106615487     52.07%     54.40% # Class of committed instruction
system.switch_cpus_1.commit.op_class_0::IntMult         2354      0.00%     54.40% # Class of committed instruction
system.switch_cpus_1.commit.op_class_0::IntDiv            0      0.00%     54.40% # Class of committed instruction
system.switch_cpus_1.commit.op_class_0::FloatAdd        29677      0.01%     54.41% # Class of committed instruction
system.switch_cpus_1.commit.op_class_0::FloatCmp         2802      0.00%     54.41% # Class of committed instruction
system.switch_cpus_1.commit.op_class_0::FloatCvt         2757      0.00%     54.41% # Class of committed instruction
system.switch_cpus_1.commit.op_class_0::FloatMult          480      0.00%     54.41% # Class of committed instruction
system.switch_cpus_1.commit.op_class_0::FloatMultAcc            0      0.00%     54.41% # Class of committed instruction
system.switch_cpus_1.commit.op_class_0::FloatDiv          424      0.00%     54.41% # Class of committed instruction
system.switch_cpus_1.commit.op_class_0::FloatMisc            0      0.00%     54.41% # Class of committed instruction
system.switch_cpus_1.commit.op_class_0::FloatSqrt            0      0.00%     54.41% # Class of committed instruction
system.switch_cpus_1.commit.op_class_0::SimdAdd            0      0.00%     54.41% # Class of committed instruction
system.switch_cpus_1.commit.op_class_0::SimdAddAcc            0      0.00%     54.41% # Class of committed instruction
system.switch_cpus_1.commit.op_class_0::SimdAlu            0      0.00%     54.41% # Class of committed instruction
system.switch_cpus_1.commit.op_class_0::SimdCmp            0      0.00%     54.41% # Class of committed instruction
system.switch_cpus_1.commit.op_class_0::SimdCvt            0      0.00%     54.41% # Class of committed instruction
system.switch_cpus_1.commit.op_class_0::SimdMisc            0      0.00%     54.41% # Class of committed instruction
system.switch_cpus_1.commit.op_class_0::SimdMult            0      0.00%     54.41% # Class of committed instruction
system.switch_cpus_1.commit.op_class_0::SimdMultAcc            0      0.00%     54.41% # Class of committed instruction
system.switch_cpus_1.commit.op_class_0::SimdShift            0      0.00%     54.41% # Class of committed instruction
system.switch_cpus_1.commit.op_class_0::SimdShiftAcc            0      0.00%     54.41% # Class of committed instruction
system.switch_cpus_1.commit.op_class_0::SimdSqrt            0      0.00%     54.41% # Class of committed instruction
system.switch_cpus_1.commit.op_class_0::SimdFloatAdd            0      0.00%     54.41% # Class of committed instruction
system.switch_cpus_1.commit.op_class_0::SimdFloatAlu            0      0.00%     54.41% # Class of committed instruction
system.switch_cpus_1.commit.op_class_0::SimdFloatCmp            0      0.00%     54.41% # Class of committed instruction
system.switch_cpus_1.commit.op_class_0::SimdFloatCvt            0      0.00%     54.41% # Class of committed instruction
system.switch_cpus_1.commit.op_class_0::SimdFloatDiv            0      0.00%     54.41% # Class of committed instruction
system.switch_cpus_1.commit.op_class_0::SimdFloatMisc            0      0.00%     54.41% # Class of committed instruction
system.switch_cpus_1.commit.op_class_0::SimdFloatMult            0      0.00%     54.41% # Class of committed instruction
system.switch_cpus_1.commit.op_class_0::SimdFloatMultAcc            0      0.00%     54.41% # Class of committed instruction
system.switch_cpus_1.commit.op_class_0::SimdFloatSqrt            0      0.00%     54.41% # Class of committed instruction
system.switch_cpus_1.commit.op_class_0::MemRead     65122112     31.80%     86.22% # Class of committed instruction
system.switch_cpus_1.commit.op_class_0::MemWrite     28099943     13.72%     99.94% # Class of committed instruction
system.switch_cpus_1.commit.op_class_0::FloatMemRead        51403      0.03%     99.96% # Class of committed instruction
system.switch_cpus_1.commit.op_class_0::FloatMemWrite        72014      0.04%    100.00% # Class of committed instruction
system.switch_cpus_1.commit.op_class_0::IprAccess            0      0.00%    100.00% # Class of committed instruction
system.switch_cpus_1.commit.op_class_0::InstPrefetch            0      0.00%    100.00% # Class of committed instruction
system.switch_cpus_1.commit.op_class_0::total    204770045                       # Class of committed instruction
system.switch_cpus_1.commit.bw_lim_events     10690252                       # number cycles where commit BW limit reached
system.switch_cpus_1.rob.rob_reads          422987580                       # The number of ROB reads
system.switch_cpus_1.rob.rob_writes         555619191                       # The number of ROB writes
system.switch_cpus_1.timesIdled               1133617                       # Number of times that the entire CPU went into an idle state and unscheduled itself
system.switch_cpus_1.idleCycles               8800760                       # Total number of cycles that the CPU has spent unscheduled due to idling
system.switch_cpus_1.committedInsts         200000002                       # Number of Instructions Simulated
system.switch_cpus_1.committedOps           200000002                       # Number of Ops (including micro ops) Simulated
system.switch_cpus_1.cpi                     0.934182                       # CPI: Cycles Per Instruction
system.switch_cpus_1.cpi_total               0.934182                       # CPI: Total CPI of All Threads
system.switch_cpus_1.ipc                     1.070455                       # IPC: Instructions Per Cycle
system.switch_cpus_1.ipc_total               1.070455                       # IPC: Total IPC of All Threads
system.switch_cpus_1.int_regfile_reads      304357215                       # number of integer regfile reads
system.switch_cpus_1.int_regfile_writes     165723097                       # number of integer regfile writes
system.switch_cpus_1.fp_regfile_reads          180609                       # number of floating regfile reads
system.switch_cpus_1.fp_regfile_writes         105998                       # number of floating regfile writes
system.switch_cpus_1.misc_regfile_reads        151470                       # number of misc regfile reads
system.switch_cpus_1.misc_regfile_writes       132243                       # number of misc regfile writes
system.tol3bus.snoop_filter.tot_requests      1295383                       # Total number of requests made to the snoop filter.
system.tol3bus.snoop_filter.hit_single_requests       645654                       # Number of requests hitting in the snoop filter with a single holder of the requested data.
system.tol3bus.snoop_filter.hit_multi_requests            0                       # Number of requests hitting in the snoop filter with multiple (>1) holders of the requested data.
system.tol3bus.snoop_filter.tot_snoops            591                       # Total number of snoops made to the snoop filter.
system.tol3bus.snoop_filter.hit_single_snoops          591                       # Number of snoops hitting in the snoop filter with a single holder of the requested data.
system.tol3bus.snoop_filter.hit_multi_snoops            0                       # Number of snoops hitting in the snoop filter with multiple (>1) holders of the requested data.
system.tol3bus.pwrStateResidencyTicks::UNDEFINED 31073201820873                       # Cumulative time (in ticks) in various power states
system.tol3bus.trans_dist::ReadResp            578792                       # Transaction distribution
system.tol3bus.trans_dist::WritebackDirty       196531                       # Transaction distribution
system.tol3bus.trans_dist::CleanEvict          552557                       # Transaction distribution
system.tol3bus.trans_dist::UpgradeReq               2                       # Transaction distribution
system.tol3bus.trans_dist::UpgradeResp              2                       # Transaction distribution
system.tol3bus.trans_dist::ReadExReq            70937                       # Transaction distribution
system.tol3bus.trans_dist::ReadExResp           70937                       # Transaction distribution
system.tol3bus.trans_dist::ReadSharedReq       578792                       # Transaction distribution
system.tol3bus.pkt_count_system.cpu.l2.mem_side::system.l3.cpu_side      1945114                       # Packet count per connected master and slave (bytes)
system.tol3bus.pkt_size_system.cpu.l2.mem_side::system.l3.cpu_side     52744064                       # Cumulative packet size per connected master and slave (bytes)
system.tol3bus.snoops                          103436                       # Total snoops (count)
system.tol3bus.snoopTraffic                   1416576                       # Total snoop traffic (bytes)
system.tol3bus.snoop_fanout::samples           753167                       # Request fanout histogram
system.tol3bus.snoop_fanout::mean            0.000785                       # Request fanout histogram
system.tol3bus.snoop_fanout::stdev           0.028001                       # Request fanout histogram
system.tol3bus.snoop_fanout::underflows             0      0.00%      0.00% # Request fanout histogram
system.tol3bus.snoop_fanout::0                 752576     99.92%     99.92% # Request fanout histogram
system.tol3bus.snoop_fanout::1                    591      0.08%    100.00% # Request fanout histogram
system.tol3bus.snoop_fanout::overflows              0      0.00%    100.00% # Request fanout histogram
system.tol3bus.snoop_fanout::min_value              0                       # Request fanout histogram
system.tol3bus.snoop_fanout::max_value              1                       # Request fanout histogram
system.tol3bus.snoop_fanout::total             753167                       # Request fanout histogram
system.tol3bus.reqLayer0.occupancy          489436740                       # Layer occupancy (ticks)
system.tol3bus.reqLayer0.utilization              0.0                       # Layer utilization (%)
system.tol3bus.respLayer0.occupancy         432720180                       # Layer occupancy (ticks)
system.tol3bus.respLayer0.utilization             0.0                       # Layer utilization (%)

---------- End Simulation Statistics   ----------
