
---------- Begin Simulation Statistics ----------
sim_seconds                                  2.432780                       # Number of seconds simulated
sim_ticks                                2432780271180                       # Number of ticks simulated
final_tick                               72462752852526                       # Number of ticks from beginning of simulation (restored from checkpoints and never reset)
sim_freq                                 1000000000000                       # Frequency of simulated ticks
host_inst_rate                                 245850                       # Simulator instruction rate (inst/s)
host_op_rate                                   245850                       # Simulator op (including micro ops) rate (op/s)
host_tick_rate                              498414972                       # Simulator tick rate (ticks/s)
host_mem_usage                                2503392                       # Number of bytes of host memory used
host_seconds                                  4881.03                       # Real time elapsed on the host
sim_insts                                  1200000011                       # Number of instructions simulated
sim_ops                                    1200000011                       # Number of ops (including micro ops) simulated
system.voltage_domain.voltage                       1                       # Voltage in Volts
system.clk_domain.clock                          1000                       # Clock period in ticks
system.mem_ctrls0.pwrStateResidencyTicks::UNDEFINED 72462752852526                       # Cumulative time (in ticks) in various power states
system.mem_ctrls0.bytes_read::cpu.inst             64                       # Number of bytes read from this memory
system.mem_ctrls0.bytes_read::cpu.data            128                       # Number of bytes read from this memory
system.mem_ctrls0.bytes_read::switch_cpus.inst       133184                       # Number of bytes read from this memory
system.mem_ctrls0.bytes_read::switch_cpus.data    386672576                       # Number of bytes read from this memory
system.mem_ctrls0.bytes_read::switch_cpus_1.inst        35904                       # Number of bytes read from this memory
system.mem_ctrls0.bytes_read::switch_cpus_1.data     80739776                       # Number of bytes read from this memory
system.mem_ctrls0.bytes_read::total         467581632                       # Number of bytes read from this memory
system.mem_ctrls0.bytes_inst_read::cpu.inst           64                       # Number of instructions bytes read from this memory
system.mem_ctrls0.bytes_inst_read::switch_cpus.inst       133184                       # Number of instructions bytes read from this memory
system.mem_ctrls0.bytes_inst_read::switch_cpus_1.inst        35904                       # Number of instructions bytes read from this memory
system.mem_ctrls0.bytes_inst_read::total       169152                       # Number of instructions bytes read from this memory
system.mem_ctrls0.bytes_written::writebacks    165921920                       # Number of bytes written to this memory
system.mem_ctrls0.bytes_written::total      165921920                       # Number of bytes written to this memory
system.mem_ctrls0.num_reads::cpu.inst               1                       # Number of read requests responded to by this memory
system.mem_ctrls0.num_reads::cpu.data               2                       # Number of read requests responded to by this memory
system.mem_ctrls0.num_reads::switch_cpus.inst         2081                       # Number of read requests responded to by this memory
system.mem_ctrls0.num_reads::switch_cpus.data      6041759                       # Number of read requests responded to by this memory
system.mem_ctrls0.num_reads::switch_cpus_1.inst          561                       # Number of read requests responded to by this memory
system.mem_ctrls0.num_reads::switch_cpus_1.data      1261559                       # Number of read requests responded to by this memory
system.mem_ctrls0.num_reads::total            7305963                       # Number of read requests responded to by this memory
system.mem_ctrls0.num_writes::writebacks      2592530                       # Number of write requests responded to by this memory
system.mem_ctrls0.num_writes::total           2592530                       # Number of write requests responded to by this memory
system.mem_ctrls0.bw_read::cpu.inst                26                       # Total read bandwidth from this memory (bytes/s)
system.mem_ctrls0.bw_read::cpu.data                53                       # Total read bandwidth from this memory (bytes/s)
system.mem_ctrls0.bw_read::switch_cpus.inst        54746                       # Total read bandwidth from this memory (bytes/s)
system.mem_ctrls0.bw_read::switch_cpus.data    158942663                       # Total read bandwidth from this memory (bytes/s)
system.mem_ctrls0.bw_read::switch_cpus_1.inst        14758                       # Total read bandwidth from this memory (bytes/s)
system.mem_ctrls0.bw_read::switch_cpus_1.data     33188273                       # Total read bandwidth from this memory (bytes/s)
system.mem_ctrls0.bw_read::total            192200520                       # Total read bandwidth from this memory (bytes/s)
system.mem_ctrls0.bw_inst_read::cpu.inst           26                       # Instruction read bandwidth from this memory (bytes/s)
system.mem_ctrls0.bw_inst_read::switch_cpus.inst        54746                       # Instruction read bandwidth from this memory (bytes/s)
system.mem_ctrls0.bw_inst_read::switch_cpus_1.inst        14758                       # Instruction read bandwidth from this memory (bytes/s)
system.mem_ctrls0.bw_inst_read::total           69530                       # Instruction read bandwidth from this memory (bytes/s)
system.mem_ctrls0.bw_write::writebacks       68202592                       # Write bandwidth from this memory (bytes/s)
system.mem_ctrls0.bw_write::total            68202592                       # Write bandwidth from this memory (bytes/s)
system.mem_ctrls0.bw_total::writebacks       68202592                       # Total bandwidth to/from this memory (bytes/s)
system.mem_ctrls0.bw_total::cpu.inst               26                       # Total bandwidth to/from this memory (bytes/s)
system.mem_ctrls0.bw_total::cpu.data               53                       # Total bandwidth to/from this memory (bytes/s)
system.mem_ctrls0.bw_total::switch_cpus.inst        54746                       # Total bandwidth to/from this memory (bytes/s)
system.mem_ctrls0.bw_total::switch_cpus.data    158942663                       # Total bandwidth to/from this memory (bytes/s)
system.mem_ctrls0.bw_total::switch_cpus_1.inst        14758                       # Total bandwidth to/from this memory (bytes/s)
system.mem_ctrls0.bw_total::switch_cpus_1.data     33188273                       # Total bandwidth to/from this memory (bytes/s)
system.mem_ctrls0.bw_total::total           260403111                       # Total bandwidth to/from this memory (bytes/s)
system.mem_ctrls0.readReqs                    7305963                       # Number of read requests accepted
system.mem_ctrls0.writeReqs                   2592530                       # Number of write requests accepted
system.mem_ctrls0.readBursts                  7305963                       # Number of DRAM read bursts, including those serviced by the write queue
system.mem_ctrls0.writeBursts                 2592530                       # Number of DRAM write bursts, including those merged in the write queue
system.mem_ctrls0.bytesReadDRAM             467186304                       # Total number of bytes read from DRAM
system.mem_ctrls0.bytesReadWrQ                 395328                       # Total number of bytes read from write queue
system.mem_ctrls0.bytesWritten              165920256                       # Total number of bytes written to DRAM
system.mem_ctrls0.bytesReadSys              467581632                       # Total read bytes from the system interface side
system.mem_ctrls0.bytesWrittenSys           165921920                       # Total written bytes from the system interface side
system.mem_ctrls0.servicedByWrQ                  6177                       # Number of DRAM read bursts serviced by the write queue
system.mem_ctrls0.mergedWrBursts                    0                       # Number of DRAM write bursts merged with an existing one
system.mem_ctrls0.neitherReadNorWriteReqs            0                       # Number of requests that are neither read nor write
system.mem_ctrls0.perBankRdBursts::0           479535                       # Per bank write bursts
system.mem_ctrls0.perBankRdBursts::1           462730                       # Per bank write bursts
system.mem_ctrls0.perBankRdBursts::2           456341                       # Per bank write bursts
system.mem_ctrls0.perBankRdBursts::3           458042                       # Per bank write bursts
system.mem_ctrls0.perBankRdBursts::4           457743                       # Per bank write bursts
system.mem_ctrls0.perBankRdBursts::5           468653                       # Per bank write bursts
system.mem_ctrls0.perBankRdBursts::6           446394                       # Per bank write bursts
system.mem_ctrls0.perBankRdBursts::7           458129                       # Per bank write bursts
system.mem_ctrls0.perBankRdBursts::8           465879                       # Per bank write bursts
system.mem_ctrls0.perBankRdBursts::9           454963                       # Per bank write bursts
system.mem_ctrls0.perBankRdBursts::10          446245                       # Per bank write bursts
system.mem_ctrls0.perBankRdBursts::11          454105                       # Per bank write bursts
system.mem_ctrls0.perBankRdBursts::12          444637                       # Per bank write bursts
system.mem_ctrls0.perBankRdBursts::13          441818                       # Per bank write bursts
system.mem_ctrls0.perBankRdBursts::14          447226                       # Per bank write bursts
system.mem_ctrls0.perBankRdBursts::15          457346                       # Per bank write bursts
system.mem_ctrls0.perBankWrBursts::0           170214                       # Per bank write bursts
system.mem_ctrls0.perBankWrBursts::1           160062                       # Per bank write bursts
system.mem_ctrls0.perBankWrBursts::2           165401                       # Per bank write bursts
system.mem_ctrls0.perBankWrBursts::3           163865                       # Per bank write bursts
system.mem_ctrls0.perBankWrBursts::4           162720                       # Per bank write bursts
system.mem_ctrls0.perBankWrBursts::5           163791                       # Per bank write bursts
system.mem_ctrls0.perBankWrBursts::6           158021                       # Per bank write bursts
system.mem_ctrls0.perBankWrBursts::7           159807                       # Per bank write bursts
system.mem_ctrls0.perBankWrBursts::8           159328                       # Per bank write bursts
system.mem_ctrls0.perBankWrBursts::9           156456                       # Per bank write bursts
system.mem_ctrls0.perBankWrBursts::10          157263                       # Per bank write bursts
system.mem_ctrls0.perBankWrBursts::11          157016                       # Per bank write bursts
system.mem_ctrls0.perBankWrBursts::12          155543                       # Per bank write bursts
system.mem_ctrls0.perBankWrBursts::13          161531                       # Per bank write bursts
system.mem_ctrls0.perBankWrBursts::14          169470                       # Per bank write bursts
system.mem_ctrls0.perBankWrBursts::15          172016                       # Per bank write bursts
system.mem_ctrls0.numRdRetry                        0                       # Number of times read queue was full causing retry
system.mem_ctrls0.numWrRetry                        0                       # Number of times write queue was full causing retry
system.mem_ctrls0.totGap                 2432779778007                       # Total gap between requests
system.mem_ctrls0.readPktSize::0                    0                       # Read request sizes (log2)
system.mem_ctrls0.readPktSize::1                    0                       # Read request sizes (log2)
system.mem_ctrls0.readPktSize::2                    0                       # Read request sizes (log2)
system.mem_ctrls0.readPktSize::3                    0                       # Read request sizes (log2)
system.mem_ctrls0.readPktSize::4                    0                       # Read request sizes (log2)
system.mem_ctrls0.readPktSize::5                    0                       # Read request sizes (log2)
system.mem_ctrls0.readPktSize::6              7305963                       # Read request sizes (log2)
system.mem_ctrls0.writePktSize::0                   0                       # Write request sizes (log2)
system.mem_ctrls0.writePktSize::1                   0                       # Write request sizes (log2)
system.mem_ctrls0.writePktSize::2                   0                       # Write request sizes (log2)
system.mem_ctrls0.writePktSize::3                   0                       # Write request sizes (log2)
system.mem_ctrls0.writePktSize::4                   0                       # Write request sizes (log2)
system.mem_ctrls0.writePktSize::5                   0                       # Write request sizes (log2)
system.mem_ctrls0.writePktSize::6             2592530                       # Write request sizes (log2)
system.mem_ctrls0.rdQLenPdf::0                6921851                       # What read queue length does an incoming req see
system.mem_ctrls0.rdQLenPdf::1                 321203                       # What read queue length does an incoming req see
system.mem_ctrls0.rdQLenPdf::2                  51391                       # What read queue length does an incoming req see
system.mem_ctrls0.rdQLenPdf::3                   5340                       # What read queue length does an incoming req see
system.mem_ctrls0.rdQLenPdf::4                      1                       # What read queue length does an incoming req see
system.mem_ctrls0.rdQLenPdf::5                      0                       # What read queue length does an incoming req see
system.mem_ctrls0.rdQLenPdf::6                      0                       # What read queue length does an incoming req see
system.mem_ctrls0.rdQLenPdf::7                      0                       # What read queue length does an incoming req see
system.mem_ctrls0.rdQLenPdf::8                      0                       # What read queue length does an incoming req see
system.mem_ctrls0.rdQLenPdf::9                      0                       # What read queue length does an incoming req see
system.mem_ctrls0.rdQLenPdf::10                     0                       # What read queue length does an incoming req see
system.mem_ctrls0.rdQLenPdf::11                     0                       # What read queue length does an incoming req see
system.mem_ctrls0.rdQLenPdf::12                     0                       # What read queue length does an incoming req see
system.mem_ctrls0.rdQLenPdf::13                     0                       # What read queue length does an incoming req see
system.mem_ctrls0.rdQLenPdf::14                     0                       # What read queue length does an incoming req see
system.mem_ctrls0.rdQLenPdf::15                     0                       # What read queue length does an incoming req see
system.mem_ctrls0.rdQLenPdf::16                     0                       # What read queue length does an incoming req see
system.mem_ctrls0.rdQLenPdf::17                     0                       # What read queue length does an incoming req see
system.mem_ctrls0.rdQLenPdf::18                     0                       # What read queue length does an incoming req see
system.mem_ctrls0.rdQLenPdf::19                     0                       # What read queue length does an incoming req see
system.mem_ctrls0.rdQLenPdf::20                     0                       # What read queue length does an incoming req see
system.mem_ctrls0.rdQLenPdf::21                     0                       # What read queue length does an incoming req see
system.mem_ctrls0.rdQLenPdf::22                     0                       # What read queue length does an incoming req see
system.mem_ctrls0.rdQLenPdf::23                     0                       # What read queue length does an incoming req see
system.mem_ctrls0.rdQLenPdf::24                     0                       # What read queue length does an incoming req see
system.mem_ctrls0.rdQLenPdf::25                     0                       # What read queue length does an incoming req see
system.mem_ctrls0.rdQLenPdf::26                     0                       # What read queue length does an incoming req see
system.mem_ctrls0.rdQLenPdf::27                     0                       # What read queue length does an incoming req see
system.mem_ctrls0.rdQLenPdf::28                     0                       # What read queue length does an incoming req see
system.mem_ctrls0.rdQLenPdf::29                     0                       # What read queue length does an incoming req see
system.mem_ctrls0.rdQLenPdf::30                     0                       # What read queue length does an incoming req see
system.mem_ctrls0.rdQLenPdf::31                     0                       # What read queue length does an incoming req see
system.mem_ctrls0.wrQLenPdf::0                      2                       # What write queue length does an incoming req see
system.mem_ctrls0.wrQLenPdf::1                      2                       # What write queue length does an incoming req see
system.mem_ctrls0.wrQLenPdf::2                      2                       # What write queue length does an incoming req see
system.mem_ctrls0.wrQLenPdf::3                      2                       # What write queue length does an incoming req see
system.mem_ctrls0.wrQLenPdf::4                      2                       # What write queue length does an incoming req see
system.mem_ctrls0.wrQLenPdf::5                      2                       # What write queue length does an incoming req see
system.mem_ctrls0.wrQLenPdf::6                      2                       # What write queue length does an incoming req see
system.mem_ctrls0.wrQLenPdf::7                      2                       # What write queue length does an incoming req see
system.mem_ctrls0.wrQLenPdf::8                      2                       # What write queue length does an incoming req see
system.mem_ctrls0.wrQLenPdf::9                      2                       # What write queue length does an incoming req see
system.mem_ctrls0.wrQLenPdf::10                     2                       # What write queue length does an incoming req see
system.mem_ctrls0.wrQLenPdf::11                     2                       # What write queue length does an incoming req see
system.mem_ctrls0.wrQLenPdf::12                     2                       # What write queue length does an incoming req see
system.mem_ctrls0.wrQLenPdf::13                     2                       # What write queue length does an incoming req see
system.mem_ctrls0.wrQLenPdf::14                     2                       # What write queue length does an incoming req see
system.mem_ctrls0.wrQLenPdf::15                 86225                       # What write queue length does an incoming req see
system.mem_ctrls0.wrQLenPdf::16                 90622                       # What write queue length does an incoming req see
system.mem_ctrls0.wrQLenPdf::17                144102                       # What write queue length does an incoming req see
system.mem_ctrls0.wrQLenPdf::18                150241                       # What write queue length does an incoming req see
system.mem_ctrls0.wrQLenPdf::19                151346                       # What write queue length does an incoming req see
system.mem_ctrls0.wrQLenPdf::20                151433                       # What write queue length does an incoming req see
system.mem_ctrls0.wrQLenPdf::21                151364                       # What write queue length does an incoming req see
system.mem_ctrls0.wrQLenPdf::22                151352                       # What write queue length does an incoming req see
system.mem_ctrls0.wrQLenPdf::23                151211                       # What write queue length does an incoming req see
system.mem_ctrls0.wrQLenPdf::24                151280                       # What write queue length does an incoming req see
system.mem_ctrls0.wrQLenPdf::25                151265                       # What write queue length does an incoming req see
system.mem_ctrls0.wrQLenPdf::26                151237                       # What write queue length does an incoming req see
system.mem_ctrls0.wrQLenPdf::27                151919                       # What write queue length does an incoming req see
system.mem_ctrls0.wrQLenPdf::28                152323                       # What write queue length does an incoming req see
system.mem_ctrls0.wrQLenPdf::29                153061                       # What write queue length does an incoming req see
system.mem_ctrls0.wrQLenPdf::30                152274                       # What write queue length does an incoming req see
system.mem_ctrls0.wrQLenPdf::31                150621                       # What write queue length does an incoming req see
system.mem_ctrls0.wrQLenPdf::32                150436                       # What write queue length does an incoming req see
system.mem_ctrls0.wrQLenPdf::33                   127                       # What write queue length does an incoming req see
system.mem_ctrls0.wrQLenPdf::34                    41                       # What write queue length does an incoming req see
system.mem_ctrls0.wrQLenPdf::35                    14                       # What write queue length does an incoming req see
system.mem_ctrls0.wrQLenPdf::36                     4                       # What write queue length does an incoming req see
system.mem_ctrls0.wrQLenPdf::37                     2                       # What write queue length does an incoming req see
system.mem_ctrls0.wrQLenPdf::38                     0                       # What write queue length does an incoming req see
system.mem_ctrls0.wrQLenPdf::39                     0                       # What write queue length does an incoming req see
system.mem_ctrls0.wrQLenPdf::40                     0                       # What write queue length does an incoming req see
system.mem_ctrls0.wrQLenPdf::41                     0                       # What write queue length does an incoming req see
system.mem_ctrls0.wrQLenPdf::42                     0                       # What write queue length does an incoming req see
system.mem_ctrls0.wrQLenPdf::43                     0                       # What write queue length does an incoming req see
system.mem_ctrls0.wrQLenPdf::44                     0                       # What write queue length does an incoming req see
system.mem_ctrls0.wrQLenPdf::45                     0                       # What write queue length does an incoming req see
system.mem_ctrls0.wrQLenPdf::46                     0                       # What write queue length does an incoming req see
system.mem_ctrls0.wrQLenPdf::47                     0                       # What write queue length does an incoming req see
system.mem_ctrls0.wrQLenPdf::48                     0                       # What write queue length does an incoming req see
system.mem_ctrls0.wrQLenPdf::49                     0                       # What write queue length does an incoming req see
system.mem_ctrls0.wrQLenPdf::50                     0                       # What write queue length does an incoming req see
system.mem_ctrls0.wrQLenPdf::51                     0                       # What write queue length does an incoming req see
system.mem_ctrls0.wrQLenPdf::52                     0                       # What write queue length does an incoming req see
system.mem_ctrls0.wrQLenPdf::53                     0                       # What write queue length does an incoming req see
system.mem_ctrls0.wrQLenPdf::54                     0                       # What write queue length does an incoming req see
system.mem_ctrls0.wrQLenPdf::55                     0                       # What write queue length does an incoming req see
system.mem_ctrls0.wrQLenPdf::56                     0                       # What write queue length does an incoming req see
system.mem_ctrls0.wrQLenPdf::57                     0                       # What write queue length does an incoming req see
system.mem_ctrls0.wrQLenPdf::58                     0                       # What write queue length does an incoming req see
system.mem_ctrls0.wrQLenPdf::59                     0                       # What write queue length does an incoming req see
system.mem_ctrls0.wrQLenPdf::60                     0                       # What write queue length does an incoming req see
system.mem_ctrls0.wrQLenPdf::61                     0                       # What write queue length does an incoming req see
system.mem_ctrls0.wrQLenPdf::62                     0                       # What write queue length does an incoming req see
system.mem_ctrls0.wrQLenPdf::63                     0                       # What write queue length does an incoming req see
system.mem_ctrls0.bytesPerActivate::samples      4458384                       # Bytes accessed per row activation
system.mem_ctrls0.bytesPerActivate::mean   142.003424                       # Bytes accessed per row activation
system.mem_ctrls0.bytesPerActivate::gmean    98.416145                       # Bytes accessed per row activation
system.mem_ctrls0.bytesPerActivate::stdev   183.891717                       # Bytes accessed per row activation
system.mem_ctrls0.bytesPerActivate::0-127      2916873     65.42%     65.42% # Bytes accessed per row activation
system.mem_ctrls0.bytesPerActivate::128-255       959834     21.53%     86.95% # Bytes accessed per row activation
system.mem_ctrls0.bytesPerActivate::256-383       228700      5.13%     92.08% # Bytes accessed per row activation
system.mem_ctrls0.bytesPerActivate::384-511       107084      2.40%     94.48% # Bytes accessed per row activation
system.mem_ctrls0.bytesPerActivate::512-639        56475      1.27%     95.75% # Bytes accessed per row activation
system.mem_ctrls0.bytesPerActivate::640-767        38658      0.87%     96.62% # Bytes accessed per row activation
system.mem_ctrls0.bytesPerActivate::768-895        33052      0.74%     97.36% # Bytes accessed per row activation
system.mem_ctrls0.bytesPerActivate::896-1023        32466      0.73%     98.09% # Bytes accessed per row activation
system.mem_ctrls0.bytesPerActivate::1024-1151        85242      1.91%    100.00% # Bytes accessed per row activation
system.mem_ctrls0.bytesPerActivate::total      4458384                       # Bytes accessed per row activation
system.mem_ctrls0.rdPerTurnAround::samples       150373                       # Reads before turning the bus around for writes
system.mem_ctrls0.rdPerTurnAround::mean     48.544187                       # Reads before turning the bus around for writes
system.mem_ctrls0.rdPerTurnAround::stdev   105.805493                       # Reads before turning the bus around for writes
system.mem_ctrls0.rdPerTurnAround::0-1023       150188     99.88%     99.88% # Reads before turning the bus around for writes
system.mem_ctrls0.rdPerTurnAround::1024-2047          164      0.11%     99.99% # Reads before turning the bus around for writes
system.mem_ctrls0.rdPerTurnAround::2048-3071           16      0.01%    100.00% # Reads before turning the bus around for writes
system.mem_ctrls0.rdPerTurnAround::3072-4095            4      0.00%    100.00% # Reads before turning the bus around for writes
system.mem_ctrls0.rdPerTurnAround::29696-30719            1      0.00%    100.00% # Reads before turning the bus around for writes
system.mem_ctrls0.rdPerTurnAround::total       150373                       # Reads before turning the bus around for writes
system.mem_ctrls0.wrPerTurnAround::samples       150373                       # Writes before turning the bus around for reads
system.mem_ctrls0.wrPerTurnAround::mean     17.240489                       # Writes before turning the bus around for reads
system.mem_ctrls0.wrPerTurnAround::gmean    17.207360                       # Writes before turning the bus around for reads
system.mem_ctrls0.wrPerTurnAround::stdev     1.066393                       # Writes before turning the bus around for reads
system.mem_ctrls0.wrPerTurnAround::16           60442     40.19%     40.19% # Writes before turning the bus around for reads
system.mem_ctrls0.wrPerTurnAround::17            3125      2.08%     42.27% # Writes before turning the bus around for reads
system.mem_ctrls0.wrPerTurnAround::18           78227     52.02%     94.29% # Writes before turning the bus around for reads
system.mem_ctrls0.wrPerTurnAround::19            7586      5.04%     99.34% # Writes before turning the bus around for reads
system.mem_ctrls0.wrPerTurnAround::20             822      0.55%     99.89% # Writes before turning the bus around for reads
system.mem_ctrls0.wrPerTurnAround::21             133      0.09%     99.97% # Writes before turning the bus around for reads
system.mem_ctrls0.wrPerTurnAround::22              25      0.02%     99.99% # Writes before turning the bus around for reads
system.mem_ctrls0.wrPerTurnAround::23               9      0.01%    100.00% # Writes before turning the bus around for reads
system.mem_ctrls0.wrPerTurnAround::24               3      0.00%    100.00% # Writes before turning the bus around for reads
system.mem_ctrls0.wrPerTurnAround::25               1      0.00%    100.00% # Writes before turning the bus around for reads
system.mem_ctrls0.wrPerTurnAround::total       150373                       # Writes before turning the bus around for reads
system.mem_ctrls0.totQLat                139439584305                       # Total ticks spent queuing
system.mem_ctrls0.totMemAccLat           276310571805                       # Total ticks spent from burst creation until serviced by the DRAM
system.mem_ctrls0.totBusLat               36498930000                       # Total ticks spent in databus transfers
system.mem_ctrls0.avgQLat                    19101.87                       # Average queueing delay per DRAM burst
system.mem_ctrls0.avgBusLat                   5000.00                       # Average bus latency per DRAM burst
system.mem_ctrls0.avgMemAccLat               37851.87                       # Average memory access latency per DRAM burst
system.mem_ctrls0.avgRdBW                      192.04                       # Average DRAM read bandwidth in MiByte/s
system.mem_ctrls0.avgWrBW                       68.20                       # Average achieved write bandwidth in MiByte/s
system.mem_ctrls0.avgRdBWSys                   192.20                       # Average system read bandwidth in MiByte/s
system.mem_ctrls0.avgWrBWSys                    68.20                       # Average system write bandwidth in MiByte/s
system.mem_ctrls0.peakBW                     12800.00                       # Theoretical peak bandwidth in MiByte/s
system.mem_ctrls0.busUtil                        2.03                       # Data bus utilization in percentage
system.mem_ctrls0.busUtilRead                    1.50                       # Data bus utilization in percentage for reads
system.mem_ctrls0.busUtilWrite                   0.53                       # Data bus utilization in percentage for writes
system.mem_ctrls0.avgRdQLen                      1.03                       # Average read queue length when enqueuing
system.mem_ctrls0.avgWrQLen                     24.77                       # Average write queue length when enqueuing
system.mem_ctrls0.readRowHits                 4768252                       # Number of row buffer hits during reads
system.mem_ctrls0.writeRowHits                 665646                       # Number of row buffer hits during writes
system.mem_ctrls0.readRowHitRate                65.32                       # Row buffer hit rate for reads
system.mem_ctrls0.writeRowHitRate               25.68                       # Row buffer hit rate for writes
system.mem_ctrls0.avgGap                    245772.74                       # Average gap between requests
system.mem_ctrls0.pageHitRate                   54.93                       # Row buffer hit rate, read and write combined
system.mem_ctrls0_0.actEnergy             15988766220                       # Energy for activate commands per rank (pJ)
system.mem_ctrls0_0.preEnergy              8498208015                       # Energy for precharge commands per rank (pJ)
system.mem_ctrls0_0.readEnergy            26329228380                       # Energy for read commands per rank (pJ)
system.mem_ctrls0_0.writeEnergy            6806258820                       # Energy for write commands per rank (pJ)
system.mem_ctrls0_0.refreshEnergy        185205168720.000031                       # Energy for refresh commands per rank (pJ)
system.mem_ctrls0_0.actBackEnergy        137340899220                       # Energy for active background per rank (pJ)
system.mem_ctrls0_0.preBackEnergy          5122464960                       # Energy for precharge background per rank (pJ)
system.mem_ctrls0_0.actPowerDownEnergy   773497844340                       # Energy for active power-down per rank (pJ)
system.mem_ctrls0_0.prePowerDownEnergy   101641341120                       # Energy for precharge power-down per rank (pJ)
system.mem_ctrls0_0.selfRefreshEnergy     43148222610                       # Energy for self refresh per rank (pJ)
system.mem_ctrls0_0.totalEnergy          1303630903215                       # Total energy per rank (pJ)
system.mem_ctrls0_0.averagePower           535.860515                       # Core power per rank (mW)
system.mem_ctrls0_0.totalIdleTime        2118142210040                       # Total Idle time Per DRAM Rank
system.mem_ctrls0_0.memoryStateTime::IDLE   4415369432                       # Time in different power states
system.mem_ctrls0_0.memoryStateTime::REF  78410484000                       # Time in different power states
system.mem_ctrls0_0.memoryStateTime::SREF 157179503594                       # Time in different power states
system.mem_ctrls0_0.memoryStateTime::PRE_PDN 264690643014                       # Time in different power states
system.mem_ctrls0_0.memoryStateTime::ACT 231811860927                       # Time in different power states
system.mem_ctrls0_0.memoryStateTime::ACT_PDN 1696272410213                       # Time in different power states
system.mem_ctrls0_1.actEnergy             15844152660                       # Energy for activate commands per rank (pJ)
system.mem_ctrls0_1.preEnergy              8421359265                       # Energy for precharge commands per rank (pJ)
system.mem_ctrls0_1.readEnergy            25791243660                       # Energy for read commands per rank (pJ)
system.mem_ctrls0_1.writeEnergy            6726612060                       # Energy for write commands per rank (pJ)
system.mem_ctrls0_1.refreshEnergy        185262944880.000031                       # Energy for refresh commands per rank (pJ)
system.mem_ctrls0_1.actBackEnergy        138088693050                       # Energy for active background per rank (pJ)
system.mem_ctrls0_1.preBackEnergy          5212078560                       # Energy for precharge background per rank (pJ)
system.mem_ctrls0_1.actPowerDownEnergy   767061758310                       # Energy for active power-down per rank (pJ)
system.mem_ctrls0_1.prePowerDownEnergy   103001384160                       # Energy for precharge power-down per rank (pJ)
system.mem_ctrls0_1.selfRefreshEnergy     45955868595                       # Energy for self refresh per rank (pJ)
system.mem_ctrls0_1.totalEnergy          1301423265690                       # Total energy per rank (pJ)
system.mem_ctrls0_1.averagePower           534.953059                       # Core power per rank (mW)
system.mem_ctrls0_1.totalIdleTime        2116248629086                       # Total Idle time Per DRAM Rank
system.mem_ctrls0_1.memoryStateTime::IDLE   4756509608                       # Time in different power states
system.mem_ctrls0_1.memoryStateTime::REF  78442472000                       # Time in different power states
system.mem_ctrls0_1.memoryStateTime::SREF 165868228450                       # Time in different power states
system.mem_ctrls0_1.memoryStateTime::PRE_PDN 268227761989                       # Time in different power states
system.mem_ctrls0_1.memoryStateTime::ACT 233331702317                       # Time in different power states
system.mem_ctrls0_1.memoryStateTime::ACT_PDN 1682153596816                       # Time in different power states
system.mem_ctrls1.pwrStateResidencyTicks::UNDEFINED 72462752852526                       # Cumulative time (in ticks) in various power states
system.mem_ctrls1.bytes_read::cpu.inst             64                       # Number of bytes read from this memory
system.mem_ctrls1.bytes_read::switch_cpus.inst       120512                       # Number of bytes read from this memory
system.mem_ctrls1.bytes_read::switch_cpus.data    387134208                       # Number of bytes read from this memory
system.mem_ctrls1.bytes_read::switch_cpus_1.inst        37120                       # Number of bytes read from this memory
system.mem_ctrls1.bytes_read::switch_cpus_1.data     80686528                       # Number of bytes read from this memory
system.mem_ctrls1.bytes_read::total         467978432                       # Number of bytes read from this memory
system.mem_ctrls1.bytes_inst_read::cpu.inst           64                       # Number of instructions bytes read from this memory
system.mem_ctrls1.bytes_inst_read::switch_cpus.inst       120512                       # Number of instructions bytes read from this memory
system.mem_ctrls1.bytes_inst_read::switch_cpus_1.inst        37120                       # Number of instructions bytes read from this memory
system.mem_ctrls1.bytes_inst_read::total       157696                       # Number of instructions bytes read from this memory
system.mem_ctrls1.bytes_written::writebacks    166021952                       # Number of bytes written to this memory
system.mem_ctrls1.bytes_written::total      166021952                       # Number of bytes written to this memory
system.mem_ctrls1.num_reads::cpu.inst               1                       # Number of read requests responded to by this memory
system.mem_ctrls1.num_reads::switch_cpus.inst         1883                       # Number of read requests responded to by this memory
system.mem_ctrls1.num_reads::switch_cpus.data      6048972                       # Number of read requests responded to by this memory
system.mem_ctrls1.num_reads::switch_cpus_1.inst          580                       # Number of read requests responded to by this memory
system.mem_ctrls1.num_reads::switch_cpus_1.data      1260727                       # Number of read requests responded to by this memory
system.mem_ctrls1.num_reads::total            7312163                       # Number of read requests responded to by this memory
system.mem_ctrls1.num_writes::writebacks      2594093                       # Number of write requests responded to by this memory
system.mem_ctrls1.num_writes::total           2594093                       # Number of write requests responded to by this memory
system.mem_ctrls1.bw_read::cpu.inst                26                       # Total read bandwidth from this memory (bytes/s)
system.mem_ctrls1.bw_read::switch_cpus.inst        49537                       # Total read bandwidth from this memory (bytes/s)
system.mem_ctrls1.bw_read::switch_cpus.data    159132418                       # Total read bandwidth from this memory (bytes/s)
system.mem_ctrls1.bw_read::switch_cpus_1.inst        15258                       # Total read bandwidth from this memory (bytes/s)
system.mem_ctrls1.bw_read::switch_cpus_1.data     33166385                       # Total read bandwidth from this memory (bytes/s)
system.mem_ctrls1.bw_read::total            192363625                       # Total read bandwidth from this memory (bytes/s)
system.mem_ctrls1.bw_inst_read::cpu.inst           26                       # Instruction read bandwidth from this memory (bytes/s)
system.mem_ctrls1.bw_inst_read::switch_cpus.inst        49537                       # Instruction read bandwidth from this memory (bytes/s)
system.mem_ctrls1.bw_inst_read::switch_cpus_1.inst        15258                       # Instruction read bandwidth from this memory (bytes/s)
system.mem_ctrls1.bw_inst_read::total           64821                       # Instruction read bandwidth from this memory (bytes/s)
system.mem_ctrls1.bw_write::writebacks       68243710                       # Write bandwidth from this memory (bytes/s)
system.mem_ctrls1.bw_write::total            68243710                       # Write bandwidth from this memory (bytes/s)
system.mem_ctrls1.bw_total::writebacks       68243710                       # Total bandwidth to/from this memory (bytes/s)
system.mem_ctrls1.bw_total::cpu.inst               26                       # Total bandwidth to/from this memory (bytes/s)
system.mem_ctrls1.bw_total::switch_cpus.inst        49537                       # Total bandwidth to/from this memory (bytes/s)
system.mem_ctrls1.bw_total::switch_cpus.data    159132418                       # Total bandwidth to/from this memory (bytes/s)
system.mem_ctrls1.bw_total::switch_cpus_1.inst        15258                       # Total bandwidth to/from this memory (bytes/s)
system.mem_ctrls1.bw_total::switch_cpus_1.data     33166385                       # Total bandwidth to/from this memory (bytes/s)
system.mem_ctrls1.bw_total::total           260607335                       # Total bandwidth to/from this memory (bytes/s)
system.mem_ctrls1.readReqs                    7312163                       # Number of read requests accepted
system.mem_ctrls1.writeReqs                   2594093                       # Number of write requests accepted
system.mem_ctrls1.readBursts                  7312163                       # Number of DRAM read bursts, including those serviced by the write queue
system.mem_ctrls1.writeBursts                 2594093                       # Number of DRAM write bursts, including those merged in the write queue
system.mem_ctrls1.bytesReadDRAM             467593536                       # Total number of bytes read from DRAM
system.mem_ctrls1.bytesReadWrQ                 384896                       # Total number of bytes read from write queue
system.mem_ctrls1.bytesWritten              166020096                       # Total number of bytes written to DRAM
system.mem_ctrls1.bytesReadSys              467978432                       # Total read bytes from the system interface side
system.mem_ctrls1.bytesWrittenSys           166021952                       # Total written bytes from the system interface side
system.mem_ctrls1.servicedByWrQ                  6014                       # Number of DRAM read bursts serviced by the write queue
system.mem_ctrls1.mergedWrBursts                    0                       # Number of DRAM write bursts merged with an existing one
system.mem_ctrls1.neitherReadNorWriteReqs            0                       # Number of requests that are neither read nor write
system.mem_ctrls1.perBankRdBursts::0           478990                       # Per bank write bursts
system.mem_ctrls1.perBankRdBursts::1           461172                       # Per bank write bursts
system.mem_ctrls1.perBankRdBursts::2           459071                       # Per bank write bursts
system.mem_ctrls1.perBankRdBursts::3           461585                       # Per bank write bursts
system.mem_ctrls1.perBankRdBursts::4           458875                       # Per bank write bursts
system.mem_ctrls1.perBankRdBursts::5           469555                       # Per bank write bursts
system.mem_ctrls1.perBankRdBursts::6           449868                       # Per bank write bursts
system.mem_ctrls1.perBankRdBursts::7           455512                       # Per bank write bursts
system.mem_ctrls1.perBankRdBursts::8           467757                       # Per bank write bursts
system.mem_ctrls1.perBankRdBursts::9           451517                       # Per bank write bursts
system.mem_ctrls1.perBankRdBursts::10          449207                       # Per bank write bursts
system.mem_ctrls1.perBankRdBursts::11          453986                       # Per bank write bursts
system.mem_ctrls1.perBankRdBursts::12          445733                       # Per bank write bursts
system.mem_ctrls1.perBankRdBursts::13          445261                       # Per bank write bursts
system.mem_ctrls1.perBankRdBursts::14          444107                       # Per bank write bursts
system.mem_ctrls1.perBankRdBursts::15          453953                       # Per bank write bursts
system.mem_ctrls1.perBankWrBursts::0           170445                       # Per bank write bursts
system.mem_ctrls1.perBankWrBursts::1           160301                       # Per bank write bursts
system.mem_ctrls1.perBankWrBursts::2           165464                       # Per bank write bursts
system.mem_ctrls1.perBankWrBursts::3           164160                       # Per bank write bursts
system.mem_ctrls1.perBankWrBursts::4           163483                       # Per bank write bursts
system.mem_ctrls1.perBankWrBursts::5           163885                       # Per bank write bursts
system.mem_ctrls1.perBankWrBursts::6           158765                       # Per bank write bursts
system.mem_ctrls1.perBankWrBursts::7           159478                       # Per bank write bursts
system.mem_ctrls1.perBankWrBursts::8           159281                       # Per bank write bursts
system.mem_ctrls1.perBankWrBursts::9           156093                       # Per bank write bursts
system.mem_ctrls1.perBankWrBursts::10          157576                       # Per bank write bursts
system.mem_ctrls1.perBankWrBursts::11          157243                       # Per bank write bursts
system.mem_ctrls1.perBankWrBursts::12          155573                       # Per bank write bursts
system.mem_ctrls1.perBankWrBursts::13          161637                       # Per bank write bursts
system.mem_ctrls1.perBankWrBursts::14          169598                       # Per bank write bursts
system.mem_ctrls1.perBankWrBursts::15          171082                       # Per bank write bursts
system.mem_ctrls1.numRdRetry                        0                       # Number of times read queue was full causing retry
system.mem_ctrls1.numWrRetry                        0                       # Number of times write queue was full causing retry
system.mem_ctrls1.totGap                 2432780238546                       # Total gap between requests
system.mem_ctrls1.readPktSize::0                    0                       # Read request sizes (log2)
system.mem_ctrls1.readPktSize::1                    0                       # Read request sizes (log2)
system.mem_ctrls1.readPktSize::2                    0                       # Read request sizes (log2)
system.mem_ctrls1.readPktSize::3                    0                       # Read request sizes (log2)
system.mem_ctrls1.readPktSize::4                    0                       # Read request sizes (log2)
system.mem_ctrls1.readPktSize::5                    0                       # Read request sizes (log2)
system.mem_ctrls1.readPktSize::6              7312163                       # Read request sizes (log2)
system.mem_ctrls1.writePktSize::0                   0                       # Write request sizes (log2)
system.mem_ctrls1.writePktSize::1                   0                       # Write request sizes (log2)
system.mem_ctrls1.writePktSize::2                   0                       # Write request sizes (log2)
system.mem_ctrls1.writePktSize::3                   0                       # Write request sizes (log2)
system.mem_ctrls1.writePktSize::4                   0                       # Write request sizes (log2)
system.mem_ctrls1.writePktSize::5                   0                       # Write request sizes (log2)
system.mem_ctrls1.writePktSize::6             2594093                       # Write request sizes (log2)
system.mem_ctrls1.rdQLenPdf::0                6929705                       # What read queue length does an incoming req see
system.mem_ctrls1.rdQLenPdf::1                 320177                       # What read queue length does an incoming req see
system.mem_ctrls1.rdQLenPdf::2                  50755                       # What read queue length does an incoming req see
system.mem_ctrls1.rdQLenPdf::3                   5511                       # What read queue length does an incoming req see
system.mem_ctrls1.rdQLenPdf::4                      1                       # What read queue length does an incoming req see
system.mem_ctrls1.rdQLenPdf::5                      0                       # What read queue length does an incoming req see
system.mem_ctrls1.rdQLenPdf::6                      0                       # What read queue length does an incoming req see
system.mem_ctrls1.rdQLenPdf::7                      0                       # What read queue length does an incoming req see
system.mem_ctrls1.rdQLenPdf::8                      0                       # What read queue length does an incoming req see
system.mem_ctrls1.rdQLenPdf::9                      0                       # What read queue length does an incoming req see
system.mem_ctrls1.rdQLenPdf::10                     0                       # What read queue length does an incoming req see
system.mem_ctrls1.rdQLenPdf::11                     0                       # What read queue length does an incoming req see
system.mem_ctrls1.rdQLenPdf::12                     0                       # What read queue length does an incoming req see
system.mem_ctrls1.rdQLenPdf::13                     0                       # What read queue length does an incoming req see
system.mem_ctrls1.rdQLenPdf::14                     0                       # What read queue length does an incoming req see
system.mem_ctrls1.rdQLenPdf::15                     0                       # What read queue length does an incoming req see
system.mem_ctrls1.rdQLenPdf::16                     0                       # What read queue length does an incoming req see
system.mem_ctrls1.rdQLenPdf::17                     0                       # What read queue length does an incoming req see
system.mem_ctrls1.rdQLenPdf::18                     0                       # What read queue length does an incoming req see
system.mem_ctrls1.rdQLenPdf::19                     0                       # What read queue length does an incoming req see
system.mem_ctrls1.rdQLenPdf::20                     0                       # What read queue length does an incoming req see
system.mem_ctrls1.rdQLenPdf::21                     0                       # What read queue length does an incoming req see
system.mem_ctrls1.rdQLenPdf::22                     0                       # What read queue length does an incoming req see
system.mem_ctrls1.rdQLenPdf::23                     0                       # What read queue length does an incoming req see
system.mem_ctrls1.rdQLenPdf::24                     0                       # What read queue length does an incoming req see
system.mem_ctrls1.rdQLenPdf::25                     0                       # What read queue length does an incoming req see
system.mem_ctrls1.rdQLenPdf::26                     0                       # What read queue length does an incoming req see
system.mem_ctrls1.rdQLenPdf::27                     0                       # What read queue length does an incoming req see
system.mem_ctrls1.rdQLenPdf::28                     0                       # What read queue length does an incoming req see
system.mem_ctrls1.rdQLenPdf::29                     0                       # What read queue length does an incoming req see
system.mem_ctrls1.rdQLenPdf::30                     0                       # What read queue length does an incoming req see
system.mem_ctrls1.rdQLenPdf::31                     0                       # What read queue length does an incoming req see
system.mem_ctrls1.wrQLenPdf::0                      2                       # What write queue length does an incoming req see
system.mem_ctrls1.wrQLenPdf::1                      2                       # What write queue length does an incoming req see
system.mem_ctrls1.wrQLenPdf::2                      2                       # What write queue length does an incoming req see
system.mem_ctrls1.wrQLenPdf::3                      2                       # What write queue length does an incoming req see
system.mem_ctrls1.wrQLenPdf::4                      2                       # What write queue length does an incoming req see
system.mem_ctrls1.wrQLenPdf::5                      2                       # What write queue length does an incoming req see
system.mem_ctrls1.wrQLenPdf::6                      2                       # What write queue length does an incoming req see
system.mem_ctrls1.wrQLenPdf::7                      2                       # What write queue length does an incoming req see
system.mem_ctrls1.wrQLenPdf::8                      2                       # What write queue length does an incoming req see
system.mem_ctrls1.wrQLenPdf::9                      2                       # What write queue length does an incoming req see
system.mem_ctrls1.wrQLenPdf::10                     2                       # What write queue length does an incoming req see
system.mem_ctrls1.wrQLenPdf::11                     2                       # What write queue length does an incoming req see
system.mem_ctrls1.wrQLenPdf::12                     2                       # What write queue length does an incoming req see
system.mem_ctrls1.wrQLenPdf::13                     2                       # What write queue length does an incoming req see
system.mem_ctrls1.wrQLenPdf::14                     2                       # What write queue length does an incoming req see
system.mem_ctrls1.wrQLenPdf::15                 86001                       # What write queue length does an incoming req see
system.mem_ctrls1.wrQLenPdf::16                 90346                       # What write queue length does an incoming req see
system.mem_ctrls1.wrQLenPdf::17                144076                       # What write queue length does an incoming req see
system.mem_ctrls1.wrQLenPdf::18                150357                       # What write queue length does an incoming req see
system.mem_ctrls1.wrQLenPdf::19                151485                       # What write queue length does an incoming req see
system.mem_ctrls1.wrQLenPdf::20                151638                       # What write queue length does an incoming req see
system.mem_ctrls1.wrQLenPdf::21                151514                       # What write queue length does an incoming req see
system.mem_ctrls1.wrQLenPdf::22                151452                       # What write queue length does an incoming req see
system.mem_ctrls1.wrQLenPdf::23                151418                       # What write queue length does an incoming req see
system.mem_ctrls1.wrQLenPdf::24                151369                       # What write queue length does an incoming req see
system.mem_ctrls1.wrQLenPdf::25                151379                       # What write queue length does an incoming req see
system.mem_ctrls1.wrQLenPdf::26                151495                       # What write queue length does an incoming req see
system.mem_ctrls1.wrQLenPdf::27                151963                       # What write queue length does an incoming req see
system.mem_ctrls1.wrQLenPdf::28                152367                       # What write queue length does an incoming req see
system.mem_ctrls1.wrQLenPdf::29                153312                       # What write queue length does an incoming req see
system.mem_ctrls1.wrQLenPdf::30                152352                       # What write queue length does an incoming req see
system.mem_ctrls1.wrQLenPdf::31                150761                       # What write queue length does an incoming req see
system.mem_ctrls1.wrQLenPdf::32                150566                       # What write queue length does an incoming req see
system.mem_ctrls1.wrQLenPdf::33                   148                       # What write queue length does an incoming req see
system.mem_ctrls1.wrQLenPdf::34                    45                       # What write queue length does an incoming req see
system.mem_ctrls1.wrQLenPdf::35                    10                       # What write queue length does an incoming req see
system.mem_ctrls1.wrQLenPdf::36                     3                       # What write queue length does an incoming req see
system.mem_ctrls1.wrQLenPdf::37                     3                       # What write queue length does an incoming req see
system.mem_ctrls1.wrQLenPdf::38                     1                       # What write queue length does an incoming req see
system.mem_ctrls1.wrQLenPdf::39                     1                       # What write queue length does an incoming req see
system.mem_ctrls1.wrQLenPdf::40                     1                       # What write queue length does an incoming req see
system.mem_ctrls1.wrQLenPdf::41                     0                       # What write queue length does an incoming req see
system.mem_ctrls1.wrQLenPdf::42                     0                       # What write queue length does an incoming req see
system.mem_ctrls1.wrQLenPdf::43                     0                       # What write queue length does an incoming req see
system.mem_ctrls1.wrQLenPdf::44                     0                       # What write queue length does an incoming req see
system.mem_ctrls1.wrQLenPdf::45                     0                       # What write queue length does an incoming req see
system.mem_ctrls1.wrQLenPdf::46                     0                       # What write queue length does an incoming req see
system.mem_ctrls1.wrQLenPdf::47                     0                       # What write queue length does an incoming req see
system.mem_ctrls1.wrQLenPdf::48                     0                       # What write queue length does an incoming req see
system.mem_ctrls1.wrQLenPdf::49                     0                       # What write queue length does an incoming req see
system.mem_ctrls1.wrQLenPdf::50                     0                       # What write queue length does an incoming req see
system.mem_ctrls1.wrQLenPdf::51                     0                       # What write queue length does an incoming req see
system.mem_ctrls1.wrQLenPdf::52                     0                       # What write queue length does an incoming req see
system.mem_ctrls1.wrQLenPdf::53                     0                       # What write queue length does an incoming req see
system.mem_ctrls1.wrQLenPdf::54                     0                       # What write queue length does an incoming req see
system.mem_ctrls1.wrQLenPdf::55                     0                       # What write queue length does an incoming req see
system.mem_ctrls1.wrQLenPdf::56                     0                       # What write queue length does an incoming req see
system.mem_ctrls1.wrQLenPdf::57                     0                       # What write queue length does an incoming req see
system.mem_ctrls1.wrQLenPdf::58                     0                       # What write queue length does an incoming req see
system.mem_ctrls1.wrQLenPdf::59                     0                       # What write queue length does an incoming req see
system.mem_ctrls1.wrQLenPdf::60                     0                       # What write queue length does an incoming req see
system.mem_ctrls1.wrQLenPdf::61                     0                       # What write queue length does an incoming req see
system.mem_ctrls1.wrQLenPdf::62                     0                       # What write queue length does an incoming req see
system.mem_ctrls1.wrQLenPdf::63                     0                       # What write queue length does an incoming req see
system.mem_ctrls1.bytesPerActivate::samples      4465215                       # Bytes accessed per row activation
system.mem_ctrls1.bytesPerActivate::mean   141.899729                       # Bytes accessed per row activation
system.mem_ctrls1.bytesPerActivate::gmean    98.384177                       # Bytes accessed per row activation
system.mem_ctrls1.bytesPerActivate::stdev   183.712012                       # Bytes accessed per row activation
system.mem_ctrls1.bytesPerActivate::0-127      2921404     65.43%     65.43% # Bytes accessed per row activation
system.mem_ctrls1.bytesPerActivate::128-255       962014     21.54%     86.97% # Bytes accessed per row activation
system.mem_ctrls1.bytesPerActivate::256-383       228374      5.11%     92.08% # Bytes accessed per row activation
system.mem_ctrls1.bytesPerActivate::384-511       108016      2.42%     94.50% # Bytes accessed per row activation
system.mem_ctrls1.bytesPerActivate::512-639        56500      1.27%     95.77% # Bytes accessed per row activation
system.mem_ctrls1.bytesPerActivate::640-767        38520      0.86%     96.63% # Bytes accessed per row activation
system.mem_ctrls1.bytesPerActivate::768-895        32808      0.73%     97.37% # Bytes accessed per row activation
system.mem_ctrls1.bytesPerActivate::896-1023        32208      0.72%     98.09% # Bytes accessed per row activation
system.mem_ctrls1.bytesPerActivate::1024-1151        85371      1.91%    100.00% # Bytes accessed per row activation
system.mem_ctrls1.bytesPerActivate::total      4465215                       # Bytes accessed per row activation
system.mem_ctrls1.rdPerTurnAround::samples       150495                       # Reads before turning the bus around for writes
system.mem_ctrls1.rdPerTurnAround::mean     48.547188                       # Reads before turning the bus around for writes
system.mem_ctrls1.rdPerTurnAround::stdev   106.783425                       # Reads before turning the bus around for writes
system.mem_ctrls1.rdPerTurnAround::0-1023       150314     99.88%     99.88% # Reads before turning the bus around for writes
system.mem_ctrls1.rdPerTurnAround::1024-2047          160      0.11%     99.99% # Reads before turning the bus around for writes
system.mem_ctrls1.rdPerTurnAround::2048-3071           18      0.01%    100.00% # Reads before turning the bus around for writes
system.mem_ctrls1.rdPerTurnAround::3072-4095            2      0.00%    100.00% # Reads before turning the bus around for writes
system.mem_ctrls1.rdPerTurnAround::30720-31743            1      0.00%    100.00% # Reads before turning the bus around for writes
system.mem_ctrls1.rdPerTurnAround::total       150495                       # Reads before turning the bus around for writes
system.mem_ctrls1.wrPerTurnAround::samples       150495                       # Writes before turning the bus around for reads
system.mem_ctrls1.wrPerTurnAround::mean     17.236878                       # Writes before turning the bus around for reads
system.mem_ctrls1.wrPerTurnAround::gmean    17.203672                       # Writes before turning the bus around for reads
system.mem_ctrls1.wrPerTurnAround::stdev     1.067712                       # Writes before turning the bus around for reads
system.mem_ctrls1.wrPerTurnAround::16           60790     40.39%     40.39% # Writes before turning the bus around for reads
system.mem_ctrls1.wrPerTurnAround::17            3106      2.06%     42.46% # Writes before turning the bus around for reads
system.mem_ctrls1.wrPerTurnAround::18           78013     51.84%     94.29% # Writes before turning the bus around for reads
system.mem_ctrls1.wrPerTurnAround::19            7548      5.02%     99.31% # Writes before turning the bus around for reads
system.mem_ctrls1.wrPerTurnAround::20             877      0.58%     99.89% # Writes before turning the bus around for reads
system.mem_ctrls1.wrPerTurnAround::21             122      0.08%     99.97% # Writes before turning the bus around for reads
system.mem_ctrls1.wrPerTurnAround::22              29      0.02%     99.99% # Writes before turning the bus around for reads
system.mem_ctrls1.wrPerTurnAround::23               6      0.00%    100.00% # Writes before turning the bus around for reads
system.mem_ctrls1.wrPerTurnAround::24               3      0.00%    100.00% # Writes before turning the bus around for reads
system.mem_ctrls1.wrPerTurnAround::26               1      0.00%    100.00% # Writes before turning the bus around for reads
system.mem_ctrls1.wrPerTurnAround::total       150495                       # Writes before turning the bus around for reads
system.mem_ctrls1.totQLat                139510317270                       # Total ticks spent queuing
system.mem_ctrls1.totMemAccLat           276500611020                       # Total ticks spent from burst creation until serviced by the DRAM
system.mem_ctrls1.totBusLat               36530745000                       # Total ticks spent in databus transfers
system.mem_ctrls1.avgQLat                    19094.92                       # Average queueing delay per DRAM burst
system.mem_ctrls1.avgBusLat                   5000.00                       # Average bus latency per DRAM burst
system.mem_ctrls1.avgMemAccLat               37844.92                       # Average memory access latency per DRAM burst
system.mem_ctrls1.avgRdBW                      192.21                       # Average DRAM read bandwidth in MiByte/s
system.mem_ctrls1.avgWrBW                       68.24                       # Average achieved write bandwidth in MiByte/s
system.mem_ctrls1.avgRdBWSys                   192.36                       # Average system read bandwidth in MiByte/s
system.mem_ctrls1.avgWrBWSys                    68.24                       # Average system write bandwidth in MiByte/s
system.mem_ctrls1.peakBW                     12800.00                       # Theoretical peak bandwidth in MiByte/s
system.mem_ctrls1.busUtil                        2.03                       # Data bus utilization in percentage
system.mem_ctrls1.busUtilRead                    1.50                       # Data bus utilization in percentage for reads
system.mem_ctrls1.busUtilWrite                   0.53                       # Data bus utilization in percentage for writes
system.mem_ctrls1.avgRdQLen                      1.03                       # Average read queue length when enqueuing
system.mem_ctrls1.avgWrQLen                     24.78                       # Average write queue length when enqueuing
system.mem_ctrls1.readRowHits                 4769412                       # Number of row buffer hits during reads
system.mem_ctrls1.writeRowHits                 665577                       # Number of row buffer hits during writes
system.mem_ctrls1.readRowHitRate                65.28                       # Row buffer hit rate for reads
system.mem_ctrls1.writeRowHitRate               25.66                       # Row buffer hit rate for writes
system.mem_ctrls1.avgGap                    245580.19                       # Average gap between requests
system.mem_ctrls1.pageHitRate                   54.90                       # Row buffer hit rate, read and write combined
system.mem_ctrls1_0.actEnergy             16025458680                       # Energy for activate commands per rank (pJ)
system.mem_ctrls1_0.preEnergy              8517710520                       # Energy for precharge commands per rank (pJ)
system.mem_ctrls1_0.readEnergy            26379643920                       # Energy for read commands per rank (pJ)
system.mem_ctrls1_0.writeEnergy            6817220820                       # Energy for write commands per rank (pJ)
system.mem_ctrls1_0.refreshEnergy        185421522000.000031                       # Energy for refresh commands per rank (pJ)
system.mem_ctrls1_0.actBackEnergy        137355742590                       # Energy for active background per rank (pJ)
system.mem_ctrls1_0.preBackEnergy          5117666880                       # Energy for precharge background per rank (pJ)
system.mem_ctrls1_0.actPowerDownEnergy   775147118250                       # Energy for active power-down per rank (pJ)
system.mem_ctrls1_0.prePowerDownEnergy   101152217280                       # Energy for precharge power-down per rank (pJ)
system.mem_ctrls1_0.selfRefreshEnergy     42611138430                       # Energy for self refresh per rank (pJ)
system.mem_ctrls1_0.totalEnergy          1304605004490                       # Total energy per rank (pJ)
system.mem_ctrls1_0.averagePower           536.260921                       # Core power per rank (mW)
system.mem_ctrls1_0.totalIdleTime        2118105738593                       # Total Idle time Per DRAM Rank
system.mem_ctrls1_0.memoryStateTime::IDLE   4417612530                       # Time in different power states
system.mem_ctrls1_0.memoryStateTime::REF  78502424000                       # Time in different power states
system.mem_ctrls1_0.memoryStateTime::SREF 154800624248                       # Time in different power states
system.mem_ctrls1_0.memoryStateTime::PRE_PDN 263420120041                       # Time in different power states
system.mem_ctrls1_0.memoryStateTime::ACT 231754162693                       # Time in different power states
system.mem_ctrls1_0.memoryStateTime::ACT_PDN 1699885327668                       # Time in different power states
system.mem_ctrls1_1.actEnergy             15856240680                       # Energy for activate commands per rank (pJ)
system.mem_ctrls1_1.preEnergy              8427780405                       # Energy for precharge commands per rank (pJ)
system.mem_ctrls1_1.readEnergy            25786259940                       # Energy for read commands per rank (pJ)
system.mem_ctrls1_1.writeEnergy            6723793260                       # Energy for write commands per rank (pJ)
system.mem_ctrls1_1.refreshEnergy        185050279440.000031                       # Energy for refresh commands per rank (pJ)
system.mem_ctrls1_1.actBackEnergy        138172281840                       # Energy for active background per rank (pJ)
system.mem_ctrls1_1.preBackEnergy          5206649760                       # Energy for precharge background per rank (pJ)
system.mem_ctrls1_1.actPowerDownEnergy   766130161710                       # Energy for active power-down per rank (pJ)
system.mem_ctrls1_1.prePowerDownEnergy   102921540000                       # Energy for precharge power-down per rank (pJ)
system.mem_ctrls1_1.selfRefreshEnergy     46407459900                       # Energy for self refresh per rank (pJ)
system.mem_ctrls1_1.totalEnergy          1300735174935                       # Total energy per rank (pJ)
system.mem_ctrls1_1.averagePower           534.670216                       # Core power per rank (mW)
system.mem_ctrls1_1.totalIdleTime        2116103284521                       # Total Idle time Per DRAM Rank
system.mem_ctrls1_1.memoryStateTime::IDLE   4741314414                       # Time in different power states
system.mem_ctrls1_1.memoryStateTime::REF  78351804000                       # Time in different power states
system.mem_ctrls1_1.memoryStateTime::SREF 167959868838                       # Time in different power states
system.mem_ctrls1_1.memoryStateTime::PRE_PDN 268026207812                       # Time in different power states
system.mem_ctrls1_1.memoryStateTime::ACT 233583814407                       # Time in different power states
system.mem_ctrls1_1.memoryStateTime::ACT_PDN 1680117261709                       # Time in different power states
system.pwrStateResidencyTicks::UNDEFINED 72462752852526                       # Cumulative time (in ticks) in various power states
system.cpu.branchPred.lookups                       1                       # Number of BP lookups
system.cpu.branchPred.condPredicted                 1                       # Number of conditional branches predicted
system.cpu.branchPred.condIncorrect                 0                       # Number of conditional branches incorrect
system.cpu.branchPred.BTBLookups                    0                       # Number of BTB lookups
system.cpu.branchPred.BTBHits                       0                       # Number of BTB hits
system.cpu.branchPred.BTBCorrect                    0                       # Number of correct BTB predictions (this stat may not work properly.
system.cpu.branchPred.BTBHitPct                   nan                       # BTB Hit Percentage
system.cpu.branchPred.usedRAS                       0                       # Number of times the RAS was used to get a target.
system.cpu.branchPred.RASInCorrect                  0                       # Number of incorrect RAS predictions.
system.cpu.branchPred.indirectLookups               0                       # Number of indirect predictor lookups.
system.cpu.branchPred.indirectHits                  0                       # Number of indirect target hits.
system.cpu.branchPred.indirectMisses                0                       # Number of indirect misses.
system.cpu.branchPredindirectMispredicted            0                       # Number of mispredicted indirect branches.
system.cpu_voltage_domain.voltage                   1                       # Voltage in Volts
system.cpu_clk_domain.clock                       333                       # Clock period in ticks
system.cpu.dtb.fetch_hits                           0                       # ITB hits
system.cpu.dtb.fetch_misses                         0                       # ITB misses
system.cpu.dtb.fetch_acv                            0                       # ITB acv
system.cpu.dtb.fetch_accesses                       0                       # ITB accesses
system.cpu.dtb.read_hits                            2                       # DTB read hits
system.cpu.dtb.read_misses                          0                       # DTB read misses
system.cpu.dtb.read_acv                             0                       # DTB read access violations
system.cpu.dtb.read_accesses                        2                       # DTB read accesses
system.cpu.dtb.write_hits                           0                       # DTB write hits
system.cpu.dtb.write_misses                         0                       # DTB write misses
system.cpu.dtb.write_acv                            0                       # DTB write access violations
system.cpu.dtb.write_accesses                       0                       # DTB write accesses
system.cpu.dtb.data_hits                            2                       # DTB hits
system.cpu.dtb.data_misses                          0                       # DTB misses
system.cpu.dtb.data_acv                             0                       # DTB access violations
system.cpu.dtb.data_accesses                        2                       # DTB accesses
system.cpu.itb.fetch_hits                           3                       # ITB hits
system.cpu.itb.fetch_misses                         0                       # ITB misses
system.cpu.itb.fetch_acv                            0                       # ITB acv
system.cpu.itb.fetch_accesses                       3                       # ITB accesses
system.cpu.itb.read_hits                            0                       # DTB read hits
system.cpu.itb.read_misses                          0                       # DTB read misses
system.cpu.itb.read_acv                             0                       # DTB read access violations
system.cpu.itb.read_accesses                        0                       # DTB read accesses
system.cpu.itb.write_hits                           0                       # DTB write hits
system.cpu.itb.write_misses                         0                       # DTB write misses
system.cpu.itb.write_acv                            0                       # DTB write access violations
system.cpu.itb.write_accesses                       0                       # DTB write accesses
system.cpu.itb.data_hits                            0                       # DTB hits
system.cpu.itb.data_misses                          0                       # DTB misses
system.cpu.itb.data_acv                             0                       # DTB access violations
system.cpu.itb.data_accesses                        0                       # DTB accesses
system.cpu.workload.num_syscalls                    5                       # Number of system calls
system.cpu.pwrStateResidencyTicks::ON    2432780271180                       # Cumulative time (in ticks) in various power states
system.cpu.numCycles                              290                       # number of cpu cycles simulated
system.cpu.numWorkItemsStarted                      0                       # number of work items this cpu started
system.cpu.numWorkItemsCompleted                    0                       # number of work items this cpu completed
system.cpu.fetch.icacheStallCycles                 18                       # Number of cycles fetch is stalled on an Icache miss
system.cpu.fetch.Insts                             10                       # Number of instructions fetch has processed
system.cpu.fetch.Branches                           1                       # Number of branches that fetch encountered
system.cpu.fetch.Cycles                             2                       # Number of cycles fetch has run and was not squashing or blocked
system.cpu.fetch.SquashCycles                       3                       # Number of cycles fetch has spent squashing
system.cpu.fetch.PendingDrainCycles                 3                       # Number of cycles fetch has spent waiting on pipes to drain
system.cpu.fetch.CacheLines                         3                       # Number of cache lines fetched
system.cpu.fetch.IcacheSquashes                     2                       # Number of outstanding Icache misses that were squashed
system.cpu.fetch.rateDist::samples                 24                       # Number of instructions fetched each cycle (Total)
system.cpu.fetch.rateDist::mean              0.416667                       # Number of instructions fetched each cycle (Total)
system.cpu.fetch.rateDist::stdev             1.665942                       # Number of instructions fetched each cycle (Total)
system.cpu.fetch.rateDist::underflows               0      0.00%      0.00% # Number of instructions fetched each cycle (Total)
[...]
system.switch_cpus_1.iq.int_inst_queue_wakeup_accesses    196298659                       # Number of integer instruction queue wakeup accesses
system.switch_cpus_1.iq.fp_inst_queue_reads    132694601                       # Number of floating instruction queue reads
system.switch_cpus_1.iq.fp_inst_queue_writes     84556497                       # Number of floating instruction queue writes
system.switch_cpus_1.iq.fp_inst_queue_wakeup_accesses     59375737                       # Number of floating instruction queue wakeup accesses
system.switch_cpus_1.iq.int_alu_accesses    212569767                       # Number of integer alu accesses
system.switch_cpus_1.iq.fp_alu_accesses      67900176                       # Number of floating point alu accesses
system.switch_cpus_1.iew.lsq.thread0.forwLoads      2265760                       # Number of loads that had data forwarded from stores
system.switch_cpus_1.iew.lsq.thread0.invAddrLoads            0                       # Number of loads ignored due to an invalid address
system.switch_cpus_1.iew.lsq.thread0.squashedLoads     21460180                       # Number of loads squashed
system.switch_cpus_1.iew.lsq.thread0.ignoredResponses        15135                       # Number of memory responses ignored because the instruction is squashed
system.switch_cpus_1.iew.lsq.thread0.memOrderViolation         7883                       # Number of memory ordering violations
system.switch_cpus_1.iew.lsq.thread0.squashedStores      7130670                       # Number of stores squashed
system.switch_cpus_1.iew.lsq.thread0.invAddrSwpfs            0                       # Number of software prefetches ignored due to an invalid address
system.switch_cpus_1.iew.lsq.thread0.blockedLoads            0                       # Number of blocked loads due to partial load-store forwarding
system.switch_cpus_1.iew.lsq.thread0.rescheduledLoads         6001                       # Number of loads that were rescheduled
system.switch_cpus_1.iew.lsq.thread0.cacheBlocked     12886920                       # Number of times an access to memory failed due to the cache being blocked
system.switch_cpus_1.iew.iewIdleCycles              0                       # Number of cycles IEW is idle
system.switch_cpus_1.iew.iewSquashCycles      1485178                       # Number of cycles IEW is squashing
system.switch_cpus_1.iew.iewBlockCycles     103283135                       # Number of cycles IEW is blocking
system.switch_cpus_1.iew.iewUnblockCycles     48073294                       # Number of cycles IEW is unblocking
system.switch_cpus_1.iew.iewDispatchedInsts    291845027                       # Number of instructions dispatched to IQ
system.switch_cpus_1.iew.iewDispSquashedInsts       148985                       # Number of squashed instructions skipped by dispatch
system.switch_cpus_1.iew.iewDispLoadInsts     61131911                       # Number of dispatched load instructions
system.switch_cpus_1.iew.iewDispStoreInsts     19121713                       # Number of dispatched store instructions
system.switch_cpus_1.iew.iewDispNonSpecInsts          202                       # Number of dispatched non-speculative instructions
system.switch_cpus_1.iew.iewIQFullEvents      1064636                       # Number of times the IQ has become full, causing a stall
system.switch_cpus_1.iew.iewLSQFullEvents     46497919                       # Number of times the LSQ has become full, causing a stall
system.switch_cpus_1.iew.memOrderViolationEvents         7883                       # Number of memory order violations
system.switch_cpus_1.iew.predictedTakenIncorrect       825920                       # Number of branches that were predicted taken incorrectly
system.switch_cpus_1.iew.predictedNotTakenIncorrect       563642                       # Number of branches that were predicted not taken incorrectly
system.switch_cpus_1.iew.branchMispredicts      1389562                       # Number of branch mispredicts detected at execute
system.switch_cpus_1.iew.iewExecutedInsts    271785106                       # Number of executed instructions
system.switch_cpus_1.iew.iewExecLoadInsts     68279916                       # Number of load instructions executed
system.switch_cpus_1.iew.iewExecSquashedInsts      1795806                       # Number of squashed instructions skipped in execute
system.switch_cpus_1.iew.exec_swp                   0                       # number of swp insts executed
system.switch_cpus_1.iew.exec_nop             1881272                       # number of nop insts executed
system.switch_cpus_1.iew.exec_refs           83980039                       # number of memory reference insts executed
system.switch_cpus_1.iew.exec_branches       34668040                       # Number of branches executed
system.switch_cpus_1.iew.exec_stores         15700123                       # Number of stores executed
system.switch_cpus_1.iew.exec_rate           0.597514                       # Inst execution rate
system.switch_cpus_1.iew.wb_sent            257670020                       # cumulative count of insts sent to commit
system.switch_cpus_1.iew.wb_count           255674396                       # cumulative count of insts written-back
system.switch_cpus_1.iew.wb_producers       153364103                       # num instructions producing a value
system.switch_cpus_1.iew.wb_consumers       189011339                       # num instructions consuming a value
system.switch_cpus_1.iew.wb_rate             0.562095                       # insts written-back per cycle
system.switch_cpus_1.iew.wb_fanout           0.811402                       # average fanout of values written-back
system.switch_cpus_1.commit.commitSquashedInsts     86390348                       # The number of squashed insts skipped by commit
system.switch_cpus_1.commit.commitNonSpecStalls          204                       # The number of times commit has been forced to stall to communicate backwards
system.switch_cpus_1.commit.branchMispredicts      1112892                       # The number of times a branch was mispredicted
system.switch_cpus_1.commit.committed_per_cycle::samples    442703885                       # Number of insts commited each cycle
system.switch_cpus_1.commit.committed_per_cycle::mean     0.454521                       # Number of insts commited each cycle
system.switch_cpus_1.commit.committed_per_cycle::stdev     1.723326                       # Number of insts commited each cycle
system.switch_cpus_1.commit.committed_per_cycle::underflows            0      0.00%      0.00% # Number of insts commited each cycle
system.switch_cpus_1.commit.committed_per_cycle::0    403750815     91.20%     91.20% # Number of insts commited each cycle
system.switch_cpus_1.commit.committed_per_cycle::1      9143348      2.07%     93.27% # Number of insts commited each cycle
system.switch_cpus_1.commit.committed_per_cycle::2      4017928      0.91%     94.17% # Number of insts commited each cycle
system.switch_cpus_1.commit.committed_per_cycle::3      1838926      0.42%     94.59% # Number of insts commited each cycle
system.switch_cpus_1.commit.committed_per_cycle::4      1249214      0.28%     94.87% # Number of insts commited each cycle
system.switch_cpus_1.commit.committed_per_cycle::5      1923624      0.43%     95.31% # Number of insts commited each cycle
system.switch_cpus_1.commit.committed_per_cycle::6       725395      0.16%     95.47% # Number of insts commited each cycle
system.switch_cpus_1.commit.committed_per_cycle::7       882060      0.20%     95.67% # Number of insts commited each cycle
system.switch_cpus_1.commit.committed_per_cycle::8     19172575      4.33%    100.00% # Number of insts commited each cycle
system.switch_cpus_1.commit.committed_per_cycle::overflows            0      0.00%    100.00% # Number of insts commited each cycle
system.switch_cpus_1.commit.committed_per_cycle::min_value            0                       # Number of insts commited each cycle
system.switch_cpus_1.commit.committed_per_cycle::max_value            8                       # Number of insts commited each cycle
system.switch_cpus_1.commit.committed_per_cycle::total    442703885                       # Number of insts commited each cycle
system.switch_cpus_1.commit.committedInsts    201218348                       # Number of instructions committed
system.switch_cpus_1.commit.committedOps    201218348                       # Number of ops (including micro ops) committed
system.switch_cpus_1.commit.swp_count               0                       # Number of s/w prefetches committed
system.switch_cpus_1.commit.refs             51662749                       # Number of memory references committed
system.switch_cpus_1.commit.loads            39671713                       # Number of loads committed
system.switch_cpus_1.commit.membars               102                       # Number of memory barriers committed
system.switch_cpus_1.commit.branches         28384894                       # Number of branches committed
system.switch_cpus_1.commit.fp_insts         51627815                       # Number of committed floating point instructions.
system.switch_cpus_1.commit.int_insts       168624392                       # Number of committed integer instructions.
system.switch_cpus_1.commit.function_calls       460018                       # Number of function calls committed.
system.switch_cpus_1.commit.op_class_0::No_OpClass      1218344      0.61%      0.61% # Class of committed instruction
system.switch_cpus_1.commit.op_class_0::IntAlu    117264313     58.28%     58.88% # Class of committed instruction
system.switch_cpus_1.commit.op_class_0::IntMult       166526      0.08%     58.97% # Class of committed instruction
system.switch_cpus_1.commit.op_class_0::IntDiv            0      0.00%     58.97% # Class of committed instruction
system.switch_cpus_1.commit.op_class_0::FloatAdd     18908760      9.40%     68.36% # Class of committed instruction
system.switch_cpus_1.commit.op_class_0::FloatCmp     10580725      5.26%     73.62% # Class of committed instruction
system.switch_cpus_1.commit.op_class_0::FloatCvt         1376      0.00%     73.62% # Class of committed instruction
system.switch_cpus_1.commit.op_class_0::FloatMult       880508      0.44%     74.06% # Class of committed instruction
system.switch_cpus_1.commit.op_class_0::FloatMultAcc            0      0.00%     74.06% # Class of committed instruction
system.switch_cpus_1.commit.op_class_0::FloatDiv       534945      0.27%     74.32% # Class of committed instruction
system.switch_cpus_1.commit.op_class_0::FloatMisc            0      0.00%     74.32% # Class of committed instruction
system.switch_cpus_1.commit.op_class_0::FloatSqrt            0      0.00%     74.32% # Class of committed instruction
system.switch_cpus_1.commit.op_class_0::SimdAdd            0      0.00%     74.32% # Class of committed instruction
system.switch_cpus_1.commit.op_class_0::SimdAddAcc            0      0.00%     74.32% # Class of committed instruction
system.switch_cpus_1.commit.op_class_0::SimdAlu            0      0.00%     74.32% # Class of committed instruction
system.switch_cpus_1.commit.op_class_0::SimdCmp            0      0.00%     74.32% # Class of committed instruction
system.switch_cpus_1.commit.op_class_0::SimdCvt            0      0.00%     74.32% # Class of committed instruction
system.switch_cpus_1.commit.op_class_0::SimdMisc            0      0.00%     74.32% # Class of committed instruction
system.switch_cpus_1.commit.op_class_0::SimdMult            0      0.00%     74.32% # Class of committed instruction
system.switch_cpus_1.commit.op_class_0::SimdMultAcc            0      0.00%     74.32% # Class of committed instruction
system.switch_cpus_1.commit.op_class_0::SimdShift            0      0.00%     74.32% # Class of committed instruction
system.switch_cpus_1.commit.op_class_0::SimdShiftAcc            0      0.00%     74.32% # Class of committed instruction
system.switch_cpus_1.commit.op_class_0::SimdSqrt            0      0.00%     74.32% # Class of committed instruction
system.switch_cpus_1.commit.op_class_0::SimdFloatAdd            0      0.00%     74.32% # Class of committed instruction
system.switch_cpus_1.commit.op_class_0::SimdFloatAlu            0      0.00%     74.32% # Class of committed instruction
system.switch_cpus_1.commit.op_class_0::SimdFloatCmp            0      0.00%     74.32% # Class of committed instruction
system.switch_cpus_1.commit.op_class_0::SimdFloatCvt            0      0.00%     74.32% # Class of committed instruction
system.switch_cpus_1.commit.op_class_0::SimdFloatDiv            0      0.00%     74.32% # Class of committed instruction
system.switch_cpus_1.commit.op_class_0::SimdFloatMisc            0      0.00%     74.32% # Class of committed instruction
system.switch_cpus_1.commit.op_class_0::SimdFloatMult            0      0.00%     74.32% # Class of committed instruction
system.switch_cpus_1.commit.op_class_0::SimdFloatMultAcc            0      0.00%     74.32% # Class of committed instruction
system.switch_cpus_1.commit.op_class_0::SimdFloatSqrt            0      0.00%     74.32% # Class of committed instruction
system.switch_cpus_1.commit.op_class_0::MemRead     20146501     10.01%     84.34% # Class of committed instruction
system.switch_cpus_1.commit.op_class_0::MemWrite     10794849      5.36%     89.70% # Class of committed instruction
system.switch_cpus_1.commit.op_class_0::FloatMemRead     19525314      9.70%     99.41% # Class of committed instruction
system.switch_cpus_1.commit.op_class_0::FloatMemWrite      1196187      0.59%    100.00% # Class of committed instruction
system.switch_cpus_1.commit.op_class_0::IprAccess            0      0.00%    100.00% # Class of committed instruction
system.switch_cpus_1.commit.op_class_0::InstPrefetch            0      0.00%    100.00% # Class of committed instruction
system.switch_cpus_1.commit.op_class_0::total    201218348                       # Class of committed instruction
system.switch_cpus_1.commit.bw_lim_events     19172575                       # number cycles where commit BW limit reached
system.switch_cpus_1.rob.rob_reads          706374947                       # The number of ROB reads
system.switch_cpus_1.rob.rob_writes         587185089                       # The number of ROB writes
system.switch_cpus_1.timesIdled                  2077                       # Number of times that the entire CPU went into an idle state and unscheduled itself
system.switch_cpus_1.idleCycles                209977                       # Total number of cycles that the CPU has spent unscheduled due to idling
system.switch_cpus_1.committedInsts         200000004                       # Number of Instructions Simulated
system.switch_cpus_1.committedOps           200000004                       # Number of Ops (including micro ops) Simulated
system.switch_cpus_1.cpi                     2.274300                       # CPI: Cycles Per Instruction
system.switch_cpus_1.cpi_total               2.274300                       # CPI: Total CPI of All Threads
system.switch_cpus_1.ipc                     0.439696                       # IPC: Instructions Per Cycle
system.switch_cpus_1.ipc_total               0.439696                       # IPC: Total IPC of All Threads
system.switch_cpus_1.int_regfile_reads      353912208                       # number of integer regfile reads
system.switch_cpus_1.int_regfile_writes     160222007                       # number of integer regfile writes
system.switch_cpus_1.fp_regfile_reads        59537687                       # number of floating regfile reads
system.switch_cpus_1.fp_regfile_writes       46540106                       # number of floating regfile writes
system.switch_cpus_1.misc_regfile_reads           243                       # number of misc regfile reads
system.switch_cpus_1.misc_regfile_writes          204                       # number of misc regfile writes
system.tol3bus.snoop_filter.tot_requests     51975907                       # Total number of requests made to the snoop filter.
system.tol3bus.snoop_filter.hit_single_requests     25985734                       # Number of requests hitting in the snoop filter with a single holder of the requested data.
system.tol3bus.snoop_filter.hit_multi_requests            0                       # Number of requests hitting in the snoop filter with multiple (>1) holders of the requested data.
system.tol3bus.snoop_filter.tot_snoops         206034                       # Total number of snoops made to the snoop filter.
system.tol3bus.snoop_filter.hit_single_snoops       206034                       # Number of snoops hitting in the snoop filter with a single holder of the requested data.
system.tol3bus.snoop_filter.hit_multi_snoops            0                       # Number of snoops hitting in the snoop filter with multiple (>1) holders of the requested data.
system.tol3bus.pwrStateResidencyTicks::UNDEFINED 72462752852526                       # Cumulative time (in ticks) in various power states
system.tol3bus.trans_dist::ReadResp          19570278                       # Transaction distribution
system.tol3bus.trans_dist::WritebackDirty     17742557                       # Transaction distribution
system.tol3bus.trans_dist::CleanEvict        22810790                       # Transaction distribution
system.tol3bus.trans_dist::UpgradeReq              32                       # Transaction distribution
system.tol3bus.trans_dist::UpgradeResp             32                       # Transaction distribution
system.tol3bus.trans_dist::ReadExReq          6419895                       # Transaction distribution
system.tol3bus.trans_dist::ReadExResp         6419895                       # Transaction distribution
system.tol3bus.trans_dist::ReadSharedReq     19570278                       # Transaction distribution
system.tol3bus.pkt_count_system.cpu.l2.mem_side::system.l3.cpu_side     77966112                       # Packet count per connected master and slave (bytes)
system.tol3bus.pkt_size_system.cpu.l2.mem_side::system.l3.cpu_side   2466950848                       # Cumulative packet size per connected master and slave (bytes)
system.tol3bus.snoops                        14567645                       # Total snoops (count)
system.tol3bus.snoopTraffic                 331943872                       # Total snoop traffic (bytes)
system.tol3bus.snoop_fanout::samples         40557850                       # Request fanout histogram
system.tol3bus.snoop_fanout::mean            0.005080                       # Request fanout histogram
system.tol3bus.snoop_fanout::stdev           0.071093                       # Request fanout histogram
system.tol3bus.snoop_fanout::underflows             0      0.00%      0.00% # Request fanout histogram
system.tol3bus.snoop_fanout::0               40351816     99.49%     99.49% # Request fanout histogram
system.tol3bus.snoop_fanout::1                 206034      0.51%    100.00% # Request fanout histogram
system.tol3bus.snoop_fanout::overflows              0      0.00%    100.00% # Request fanout histogram
system.tol3bus.snoop_fanout::min_value              0                       # Request fanout histogram
system.tol3bus.snoop_fanout::max_value              1                       # Request fanout histogram
system.tol3bus.snoop_fanout::total           40557850                       # Request fanout histogram
system.tol3bus.reqLayer0.occupancy        21489103053                       # Layer occupancy (ticks)
system.tol3bus.reqLayer0.utilization              0.9                       # Layer utilization (%)
system.tol3bus.respLayer0.occupancy       17309465874                       # Layer occupancy (ticks)
system.tol3bus.respLayer0.utilization             0.7                       # Layer utilization (%)

---------- End Simulation Statistics   ----------
