
---------- Begin Simulation Statistics ----------
sim_seconds                                  1.418930                       # Number of seconds simulated
sim_ticks                                1418929539311                       # Number of ticks simulated
final_tick                               191470239454311                       # Number of ticks from beginning of simulation (restored from checkpoints and never reset)
sim_freq                                 1000000000000                       # Frequency of simulated ticks
host_inst_rate                                 362348                       # Simulator instruction rate (inst/s)
host_op_rate                                   362348                       # Simulator op (including micro ops) rate (op/s)
host_tick_rate                              428455495                       # Simulator tick rate (ticks/s)
host_mem_usage                                2538912                       # Number of bytes of host memory used
host_seconds                                  3311.73                       # Real time elapsed on the host
sim_insts                                  1200000007                       # Number of instructions simulated
sim_ops                                    1200000007                       # Number of ops (including micro ops) simulated
system.voltage_domain.voltage                       1                       # Voltage in Volts
system.clk_domain.clock                          1000                       # Clock period in ticks
system.mem_ctrls0.pwrStateResidencyTicks::UNDEFINED 191470239454311                       # Cumulative time (in ticks) in various power states
system.mem_ctrls0.bytes_read::cpu.inst            192                       # Number of bytes read from this memory
system.mem_ctrls0.bytes_read::cpu.data            192                       # Number of bytes read from this memory
system.mem_ctrls0.bytes_read::switch_cpus.inst        12992                       # Number of bytes read from this memory
system.mem_ctrls0.bytes_read::switch_cpus.data     18609152                       # Number of bytes read from this memory
system.mem_ctrls0.bytes_read::switch_cpus_1.inst          384                       # Number of bytes read from this memory
system.mem_ctrls0.bytes_read::switch_cpus_1.data      3150400                       # Number of bytes read from this memory
system.mem_ctrls0.bytes_read::total          21773312                       # Number of bytes read from this memory
system.mem_ctrls0.bytes_inst_read::cpu.inst          192                       # Number of instructions bytes read from this memory
system.mem_ctrls0.bytes_inst_read::switch_cpus.inst        12992                       # Number of instructions bytes read from this memory
system.mem_ctrls0.bytes_inst_read::switch_cpus_1.inst          384                       # Number of instructions bytes read from this memory
system.mem_ctrls0.bytes_inst_read::total        13568                       # Number of instructions bytes read from this memory
system.mem_ctrls0.bytes_written::writebacks     14938496                       # Number of bytes written to this memory
system.mem_ctrls0.bytes_written::total       14938496                       # Number of bytes written to this memory
system.mem_ctrls0.num_reads::cpu.inst               3                       # Number of read requests responded to by this memory
system.mem_ctrls0.num_reads::cpu.data               3                       # Number of read requests responded to by this memory
system.mem_ctrls0.num_reads::switch_cpus.inst          203                       # Number of read requests responded to by this memory
system.mem_ctrls0.num_reads::switch_cpus.data       290768                       # Number of read requests responded to by this memory
system.mem_ctrls0.num_reads::switch_cpus_1.inst            6                       # Number of read requests responded to by this memory
system.mem_ctrls0.num_reads::switch_cpus_1.data        49225                       # Number of read requests responded to by this memory
system.mem_ctrls0.num_reads::total             340208                       # Number of read requests responded to by this memory
system.mem_ctrls0.num_writes::writebacks       233414                       # Number of write requests responded to by this memory
system.mem_ctrls0.num_writes::total            233414                       # Number of write requests responded to by this memory
system.mem_ctrls0.bw_read::cpu.inst               135                       # Total read bandwidth from this memory (bytes/s)
system.mem_ctrls0.bw_read::cpu.data               135                       # Total read bandwidth from this memory (bytes/s)
system.mem_ctrls0.bw_read::switch_cpus.inst         9156                       # Total read bandwidth from this memory (bytes/s)
system.mem_ctrls0.bw_read::switch_cpus.data     13114923                       # Total read bandwidth from this memory (bytes/s)
system.mem_ctrls0.bw_read::switch_cpus_1.inst          271                       # Total read bandwidth from this memory (bytes/s)
system.mem_ctrls0.bw_read::switch_cpus_1.data      2220265                       # Total read bandwidth from this memory (bytes/s)
system.mem_ctrls0.bw_read::total             15344886                       # Total read bandwidth from this memory (bytes/s)
system.mem_ctrls0.bw_inst_read::cpu.inst          135                       # Instruction read bandwidth from this memory (bytes/s)
system.mem_ctrls0.bw_inst_read::switch_cpus.inst         9156                       # Instruction read bandwidth from this memory (bytes/s)
system.mem_ctrls0.bw_inst_read::switch_cpus_1.inst          271                       # Instruction read bandwidth from this memory (bytes/s)
system.mem_ctrls0.bw_inst_read::total            9562                       # Instruction read bandwidth from this memory (bytes/s)
system.mem_ctrls0.bw_write::writebacks       10528004                       # Write bandwidth from this memory (bytes/s)
system.mem_ctrls0.bw_write::total            10528004                       # Write bandwidth from this memory (bytes/s)
system.mem_ctrls0.bw_total::writebacks       10528004                       # Total bandwidth to/from this memory (bytes/s)
system.mem_ctrls0.bw_total::cpu.inst              135                       # Total bandwidth to/from this memory (bytes/s)
system.mem_ctrls0.bw_total::cpu.data              135                       # Total bandwidth to/from this memory (bytes/s)
system.mem_ctrls0.bw_total::switch_cpus.inst         9156                       # Total bandwidth to/from this memory (bytes/s)
system.mem_ctrls0.bw_total::switch_cpus.data     13114923                       # Total bandwidth to/from this memory (bytes/s)
system.mem_ctrls0.bw_total::switch_cpus_1.inst          271                       # Total bandwidth to/from this memory (bytes/s)
system.mem_ctrls0.bw_total::switch_cpus_1.data      2220265                       # Total bandwidth to/from this memory (bytes/s)
system.mem_ctrls0.bw_total::total            25872890                       # Total bandwidth to/from this memory (bytes/s)
system.mem_ctrls0.readReqs                     340208                       # Number of read requests accepted
system.mem_ctrls0.writeReqs                    233414                       # Number of write requests accepted
system.mem_ctrls0.readBursts                   340208                       # Number of DRAM read bursts, including those serviced by the write queue
system.mem_ctrls0.writeBursts                  233414                       # Number of DRAM write bursts, including those merged in the write queue
system.mem_ctrls0.bytesReadDRAM              21759680                       # Total number of bytes read from DRAM
system.mem_ctrls0.bytesReadWrQ                  13632                       # Total number of bytes read from write queue
system.mem_ctrls0.bytesWritten               14937472                       # Total number of bytes written to DRAM
system.mem_ctrls0.bytesReadSys               21773312                       # Total read bytes from the system interface side
system.mem_ctrls0.bytesWrittenSys            14938496                       # Total written bytes from the system interface side
system.mem_ctrls0.servicedByWrQ                   213                       # Number of DRAM read bursts serviced by the write queue
system.mem_ctrls0.mergedWrBursts                    0                       # Number of DRAM write bursts merged with an existing one
system.mem_ctrls0.neitherReadNorWriteReqs            0                       # Number of requests that are neither read nor write
system.mem_ctrls0.perBankRdBursts::0            21752                       # Per bank write bursts
system.mem_ctrls0.perBankRdBursts::1            21240                       # Per bank write bursts
system.mem_ctrls0.perBankRdBursts::2            22185                       # Per bank write bursts
system.mem_ctrls0.perBankRdBursts::3            22038                       # Per bank write bursts
system.mem_ctrls0.perBankRdBursts::4            20622                       # Per bank write bursts
system.mem_ctrls0.perBankRdBursts::5            21178                       # Per bank write bursts
system.mem_ctrls0.perBankRdBursts::6            21242                       # Per bank write bursts
system.mem_ctrls0.perBankRdBursts::7            21858                       # Per bank write bursts
system.mem_ctrls0.perBankRdBursts::8            21969                       # Per bank write bursts
system.mem_ctrls0.perBankRdBursts::9            20544                       # Per bank write bursts
system.mem_ctrls0.perBankRdBursts::10           20976                       # Per bank write bursts
system.mem_ctrls0.perBankRdBursts::11           20769                       # Per bank write bursts
system.mem_ctrls0.perBankRdBursts::12           20061                       # Per bank write bursts
system.mem_ctrls0.perBankRdBursts::13           21041                       # Per bank write bursts
system.mem_ctrls0.perBankRdBursts::14           20847                       # Per bank write bursts
system.mem_ctrls0.perBankRdBursts::15           21673                       # Per bank write bursts
system.mem_ctrls0.perBankWrBursts::0            15183                       # Per bank write bursts
system.mem_ctrls0.perBankWrBursts::1            14976                       # Per bank write bursts
system.mem_ctrls0.perBankWrBursts::2            15493                       # Per bank write bursts
system.mem_ctrls0.perBankWrBursts::3            15234                       # Per bank write bursts
system.mem_ctrls0.perBankWrBursts::4            13927                       # Per bank write bursts
system.mem_ctrls0.perBankWrBursts::5            14460                       # Per bank write bursts
system.mem_ctrls0.perBankWrBursts::6            14587                       # Per bank write bursts
system.mem_ctrls0.perBankWrBursts::7            15033                       # Per bank write bursts
system.mem_ctrls0.perBankWrBursts::8            15064                       # Per bank write bursts
system.mem_ctrls0.perBankWrBursts::9            13922                       # Per bank write bursts
system.mem_ctrls0.perBankWrBursts::10           14134                       # Per bank write bursts
system.mem_ctrls0.perBankWrBursts::11           14235                       # Per bank write bursts
system.mem_ctrls0.perBankWrBursts::12           13604                       # Per bank write bursts
system.mem_ctrls0.perBankWrBursts::13           13913                       # Per bank write bursts
system.mem_ctrls0.perBankWrBursts::14           14371                       # Per bank write bursts
system.mem_ctrls0.perBankWrBursts::15           15262                       # Per bank write bursts
system.mem_ctrls0.numRdRetry                        0                       # Number of times read queue was full causing retry
system.mem_ctrls0.numWrRetry                        0                       # Number of times write queue was full causing retry
system.mem_ctrls0.totGap                 1418622192099                       # Total gap between requests
system.mem_ctrls0.readPktSize::0                    0                       # Read request sizes (log2)
system.mem_ctrls0.readPktSize::1                    0                       # Read request sizes (log2)
system.mem_ctrls0.readPktSize::2                    0                       # Read request sizes (log2)
system.mem_ctrls0.readPktSize::3                    0                       # Read request sizes (log2)
system.mem_ctrls0.readPktSize::4                    0                       # Read request sizes (log2)
system.mem_ctrls0.readPktSize::5                    0                       # Read request sizes (log2)
system.mem_ctrls0.readPktSize::6               340208                       # Read request sizes (log2)
system.mem_ctrls0.writePktSize::0                   0                       # Write request sizes (log2)
system.mem_ctrls0.writePktSize::1                   0                       # Write request sizes (log2)
system.mem_ctrls0.writePktSize::2                   0                       # Write request sizes (log2)
system.mem_ctrls0.writePktSize::3                   0                       # Write request sizes (log2)
system.mem_ctrls0.writePktSize::4                   0                       # Write request sizes (log2)
system.mem_ctrls0.writePktSize::5                   0                       # Write request sizes (log2)
system.mem_ctrls0.writePktSize::6              233414                       # Write request sizes (log2)
system.mem_ctrls0.rdQLenPdf::0                 330072                       # What read queue length does an incoming req see
system.mem_ctrls0.rdQLenPdf::1                   9880                       # What read queue length does an incoming req see
system.mem_ctrls0.rdQLenPdf::2                     35                       # What read queue length does an incoming req see
system.mem_ctrls0.rdQLenPdf::3                      7                       # What read queue length does an incoming req see
system.mem_ctrls0.rdQLenPdf::4                      1                       # What read queue length does an incoming req see
system.mem_ctrls0.rdQLenPdf::5                      0                       # What read queue length does an incoming req see
system.mem_ctrls0.rdQLenPdf::6                      0                       # What read queue length does an incoming req see
system.mem_ctrls0.rdQLenPdf::7                      0                       # What read queue length does an incoming req see
system.mem_ctrls0.rdQLenPdf::8                      0                       # What read queue length does an incoming req see
system.mem_ctrls0.rdQLenPdf::9                      0                       # What read queue length does an incoming req see
system.mem_ctrls0.rdQLenPdf::10                     0                       # What read queue length does an incoming req see
system.mem_ctrls0.rdQLenPdf::11                     0                       # What read queue length does an incoming req see
system.mem_ctrls0.rdQLenPdf::12                     0                       # What read queue length does an incoming req see
system.mem_ctrls0.rdQLenPdf::13                     0                       # What read queue length does an incoming req see
system.mem_ctrls0.rdQLenPdf::14                     0                       # What read queue length does an incoming req see
system.mem_ctrls0.rdQLenPdf::15                     0                       # What read queue length does an incoming req see
system.mem_ctrls0.rdQLenPdf::16                     0                       # What read queue length does an incoming req see
system.mem_ctrls0.rdQLenPdf::17                     0                       # What read queue length does an incoming req see
system.mem_ctrls0.rdQLenPdf::18                     0                       # What read queue length does an incoming req see
system.mem_ctrls0.rdQLenPdf::19                     0                       # What read queue length does an incoming req see
system.mem_ctrls0.rdQLenPdf::20                     0                       # What read queue length does an incoming req see
system.mem_ctrls0.rdQLenPdf::21                     0                       # What read queue length does an incoming req see
system.mem_ctrls0.rdQLenPdf::22                     0                       # What read queue length does an incoming req see
system.mem_ctrls0.rdQLenPdf::23                     0                       # What read queue length does an incoming req see
system.mem_ctrls0.rdQLenPdf::24                     0                       # What read queue length does an incoming req see
system.mem_ctrls0.rdQLenPdf::25                     0                       # What read queue length does an incoming req see
system.mem_ctrls0.rdQLenPdf::26                     0                       # What read queue length does an incoming req see
system.mem_ctrls0.rdQLenPdf::27                     0                       # What read queue length does an incoming req see
system.mem_ctrls0.rdQLenPdf::28                     0                       # What read queue length does an incoming req see
system.mem_ctrls0.rdQLenPdf::29                     0                       # What read queue length does an incoming req see
system.mem_ctrls0.rdQLenPdf::30                     0                       # What read queue length does an incoming req see
system.mem_ctrls0.rdQLenPdf::31                     0                       # What read queue length does an incoming req see
system.mem_ctrls0.wrQLenPdf::0                      2                       # What write queue length does an incoming req see
system.mem_ctrls0.wrQLenPdf::1                      2                       # What write queue length does an incoming req see
system.mem_ctrls0.wrQLenPdf::2                      2                       # What write queue length does an incoming req see
system.mem_ctrls0.wrQLenPdf::3                      2                       # What write queue length does an incoming req see
system.mem_ctrls0.wrQLenPdf::4                      2                       # What write queue length does an incoming req see
system.mem_ctrls0.wrQLenPdf::5                      2                       # What write queue length does an incoming req see
system.mem_ctrls0.wrQLenPdf::6                      2                       # What write queue length does an incoming req see
system.mem_ctrls0.wrQLenPdf::7                      2                       # What write queue length does an incoming req see
system.mem_ctrls0.wrQLenPdf::8                      2                       # What write queue length does an incoming req see
system.mem_ctrls0.wrQLenPdf::9                      2                       # What write queue length does an incoming req see
system.mem_ctrls0.wrQLenPdf::10                     2                       # What write queue length does an incoming req see
system.mem_ctrls0.wrQLenPdf::11                     2                       # What write queue length does an incoming req see
system.mem_ctrls0.wrQLenPdf::12                     2                       # What write queue length does an incoming req see
system.mem_ctrls0.wrQLenPdf::13                     2                       # What write queue length does an incoming req see
system.mem_ctrls0.wrQLenPdf::14                     2                       # What write queue length does an incoming req see
system.mem_ctrls0.wrQLenPdf::15                 11202                       # What write queue length does an incoming req see
system.mem_ctrls0.wrQLenPdf::16                 11426                       # What write queue length does an incoming req see
system.mem_ctrls0.wrQLenPdf::17                 12943                       # What write queue length does an incoming req see
system.mem_ctrls0.wrQLenPdf::18                 13158                       # What write queue length does an incoming req see
system.mem_ctrls0.wrQLenPdf::19                 13166                       # What write queue length does an incoming req see
system.mem_ctrls0.wrQLenPdf::20                 13164                       # What write queue length does an incoming req see
system.mem_ctrls0.wrQLenPdf::21                 13203                       # What write queue length does an incoming req see
system.mem_ctrls0.wrQLenPdf::22                 13281                       # What write queue length does an incoming req see
system.mem_ctrls0.wrQLenPdf::23                 13207                       # What write queue length does an incoming req see
system.mem_ctrls0.wrQLenPdf::24                 13194                       # What write queue length does an incoming req see
system.mem_ctrls0.wrQLenPdf::25                 13164                       # What write queue length does an incoming req see
system.mem_ctrls0.wrQLenPdf::26                 13189                       # What write queue length does an incoming req see
system.mem_ctrls0.wrQLenPdf::27                 13176                       # What write queue length does an incoming req see
system.mem_ctrls0.wrQLenPdf::28                 13152                       # What write queue length does an incoming req see
system.mem_ctrls0.wrQLenPdf::29                 13149                       # What write queue length does an incoming req see
system.mem_ctrls0.wrQLenPdf::30                 13274                       # What write queue length does an incoming req see
system.mem_ctrls0.wrQLenPdf::31                 13130                       # What write queue length does an incoming req see
system.mem_ctrls0.wrQLenPdf::32                 13128                       # What write queue length does an incoming req see
system.mem_ctrls0.wrQLenPdf::33                    70                       # What write queue length does an incoming req see
system.mem_ctrls0.wrQLenPdf::34                     7                       # What write queue length does an incoming req see
system.mem_ctrls0.wrQLenPdf::35                     1                       # What write queue length does an incoming req see
system.mem_ctrls0.wrQLenPdf::36                     0                       # What write queue length does an incoming req see
system.mem_ctrls0.wrQLenPdf::37                     0                       # What write queue length does an incoming req see
system.mem_ctrls0.wrQLenPdf::38                     0                       # What write queue length does an incoming req see
system.mem_ctrls0.wrQLenPdf::39                     0                       # What write queue length does an incoming req see
system.mem_ctrls0.wrQLenPdf::40                     0                       # What write queue length does an incoming req see
system.mem_ctrls0.wrQLenPdf::41                     0                       # What write queue length does an incoming req see
system.mem_ctrls0.wrQLenPdf::42                     0                       # What write queue length does an incoming req see
system.mem_ctrls0.wrQLenPdf::43                     0                       # What write queue length does an incoming req see
system.mem_ctrls0.wrQLenPdf::44                     0                       # What write queue length does an incoming req see
system.mem_ctrls0.wrQLenPdf::45                     0                       # What write queue length does an incoming req see
system.mem_ctrls0.wrQLenPdf::46                     0                       # What write queue length does an incoming req see
system.mem_ctrls0.wrQLenPdf::47                     0                       # What write queue length does an incoming req see
system.mem_ctrls0.wrQLenPdf::48                     0                       # What write queue length does an incoming req see
system.mem_ctrls0.wrQLenPdf::49                     0                       # What write queue length does an incoming req see
system.mem_ctrls0.wrQLenPdf::50                     0                       # What write queue length does an incoming req see
system.mem_ctrls0.wrQLenPdf::51                     0                       # What write queue length does an incoming req see
system.mem_ctrls0.wrQLenPdf::52                     0                       # What write queue length does an incoming req see
system.mem_ctrls0.wrQLenPdf::53                     0                       # What write queue length does an incoming req see
system.mem_ctrls0.wrQLenPdf::54                     0                       # What write queue length does an incoming req see
system.mem_ctrls0.wrQLenPdf::55                     0                       # What write queue length does an incoming req see
system.mem_ctrls0.wrQLenPdf::56                     0                       # What write queue length does an incoming req see
system.mem_ctrls0.wrQLenPdf::57                     0                       # What write queue length does an incoming req see
system.mem_ctrls0.wrQLenPdf::58                     0                       # What write queue length does an incoming req see
system.mem_ctrls0.wrQLenPdf::59                     0                       # What write queue length does an incoming req see
system.mem_ctrls0.wrQLenPdf::60                     0                       # What write queue length does an incoming req see
system.mem_ctrls0.wrQLenPdf::61                     0                       # What write queue length does an incoming req see
system.mem_ctrls0.wrQLenPdf::62                     0                       # What write queue length does an incoming req see
system.mem_ctrls0.wrQLenPdf::63                     0                       # What write queue length does an incoming req see
system.mem_ctrls0.bytesPerActivate::samples       277838                       # Bytes accessed per row activation
system.mem_ctrls0.bytesPerActivate::mean   132.081112                       # Bytes accessed per row activation
system.mem_ctrls0.bytesPerActivate::gmean    98.535311                       # Bytes accessed per row activation
system.mem_ctrls0.bytesPerActivate::stdev   148.339209                       # Bytes accessed per row activation
system.mem_ctrls0.bytesPerActivate::0-127       174586     62.84%     62.84% # Bytes accessed per row activation
system.mem_ctrls0.bytesPerActivate::128-255        66919     24.09%     86.92% # Bytes accessed per row activation
system.mem_ctrls0.bytesPerActivate::256-383        19321      6.95%     93.88% # Bytes accessed per row activation
system.mem_ctrls0.bytesPerActivate::384-511         7831      2.82%     96.70% # Bytes accessed per row activation
system.mem_ctrls0.bytesPerActivate::512-639         2715      0.98%     97.67% # Bytes accessed per row activation
system.mem_ctrls0.bytesPerActivate::640-767         1553      0.56%     98.23% # Bytes accessed per row activation
system.mem_ctrls0.bytesPerActivate::768-895         1103      0.40%     98.63% # Bytes accessed per row activation
system.mem_ctrls0.bytesPerActivate::896-1023          927      0.33%     98.96% # Bytes accessed per row activation
system.mem_ctrls0.bytesPerActivate::1024-1151         2883      1.04%    100.00% # Bytes accessed per row activation
system.mem_ctrls0.bytesPerActivate::total       277838                       # Bytes accessed per row activation
system.mem_ctrls0.rdPerTurnAround::samples        13104                       # Reads before turning the bus around for writes
system.mem_ctrls0.rdPerTurnAround::mean     25.901633                       # Reads before turning the bus around for writes
system.mem_ctrls0.rdPerTurnAround::stdev   287.037743                       # Reads before turning the bus around for writes
system.mem_ctrls0.rdPerTurnAround::0-1023        13098     99.95%     99.95% # Reads before turning the bus around for writes
system.mem_ctrls0.rdPerTurnAround::1024-2047            1      0.01%     99.96% # Reads before turning the bus around for writes
system.mem_ctrls0.rdPerTurnAround::6144-7167            1      0.01%     99.97% # Reads before turning the bus around for writes
system.mem_ctrls0.rdPerTurnAround::7168-8191            1      0.01%     99.98% # Reads before turning the bus around for writes
system.mem_ctrls0.rdPerTurnAround::8192-9215            2      0.02%     99.99% # Reads before turning the bus around for writes
system.mem_ctrls0.rdPerTurnAround::28672-29695            1      0.01%    100.00% # Reads before turning the bus around for writes
system.mem_ctrls0.rdPerTurnAround::total        13104                       # Reads before turning the bus around for writes
system.mem_ctrls0.wrPerTurnAround::samples        13104                       # Writes before turning the bus around for reads
system.mem_ctrls0.wrPerTurnAround::mean     17.811203                       # Writes before turning the bus around for reads
system.mem_ctrls0.wrPerTurnAround::gmean    17.793374                       # Writes before turning the bus around for reads
system.mem_ctrls0.wrPerTurnAround::stdev     0.784442                       # Writes before turning the bus around for reads
system.mem_ctrls0.wrPerTurnAround::16            1710     13.05%     13.05% # Writes before turning the bus around for reads
system.mem_ctrls0.wrPerTurnAround::17             158      1.21%     14.26% # Writes before turning the bus around for reads
system.mem_ctrls0.wrPerTurnAround::18           10273     78.40%     92.65% # Writes before turning the bus around for reads
system.mem_ctrls0.wrPerTurnAround::19             850      6.49%     99.14% # Writes before turning the bus around for reads
system.mem_ctrls0.wrPerTurnAround::20              94      0.72%     99.86% # Writes before turning the bus around for reads
system.mem_ctrls0.wrPerTurnAround::21              18      0.14%     99.99% # Writes before turning the bus around for reads
system.mem_ctrls0.wrPerTurnAround::30               1      0.01%    100.00% # Writes before turning the bus around for reads
system.mem_ctrls0.wrPerTurnAround::total        13104                       # Writes before turning the bus around for reads
system.mem_ctrls0.totQLat                 13661863260                       # Total ticks spent queuing
system.mem_ctrls0.totMemAccLat            20036769510                       # Total ticks spent from burst creation until serviced by the DRAM
system.mem_ctrls0.totBusLat                1699975000                       # Total ticks spent in databus transfers
system.mem_ctrls0.avgQLat                    40182.54                       # Average queueing delay per DRAM burst
system.mem_ctrls0.avgBusLat                   5000.00                       # Average bus latency per DRAM burst
system.mem_ctrls0.avgMemAccLat               58932.54                       # Average memory access latency per DRAM burst
system.mem_ctrls0.avgRdBW                       15.34                       # Average DRAM read bandwidth in MiByte/s
system.mem_ctrls0.avgWrBW                       10.53                       # Average achieved write bandwidth in MiByte/s
system.mem_ctrls0.avgRdBWSys                    15.34                       # Average system read bandwidth in MiByte/s
system.mem_ctrls0.avgWrBWSys                    10.53                       # Average system write bandwidth in MiByte/s
system.mem_ctrls0.peakBW                     12800.00                       # Theoretical peak bandwidth in MiByte/s
system.mem_ctrls0.busUtil                        0.20                       # Data bus utilization in percentage
system.mem_ctrls0.busUtilRead                    0.12                       # Data bus utilization in percentage for reads
system.mem_ctrls0.busUtilWrite                   0.08                       # Data bus utilization in percentage for writes
system.mem_ctrls0.avgRdQLen                      1.00                       # Average read queue length when enqueuing
system.mem_ctrls0.avgWrQLen                     22.46                       # Average write queue length when enqueuing
system.mem_ctrls0.readRowHits                  179261                       # Number of row buffer hits during reads
system.mem_ctrls0.writeRowHits                 116294                       # Number of row buffer hits during writes
system.mem_ctrls0.readRowHitRate                52.72                       # Row buffer hit rate for reads
system.mem_ctrls0.writeRowHitRate               49.82                       # Row buffer hit rate for writes
system.mem_ctrls0.avgGap                   2473095.86                       # Average gap between requests
system.mem_ctrls0.pageHitRate                   51.54                       # Row buffer hit rate, read and write combined
system.mem_ctrls0_0.actEnergy              1001677740                       # Energy for activate commands per rank (pJ)
system.mem_ctrls0_0.preEnergy               532404345                       # Energy for precharge commands per rank (pJ)
system.mem_ctrls0_0.readEnergy             1228901100                       # Energy for read commands per rank (pJ)
system.mem_ctrls0_0.writeEnergy             620621460                       # Energy for write commands per rank (pJ)
system.mem_ctrls0_0.refreshEnergy        36986576640.000008                       # Energy for refresh commands per rank (pJ)
system.mem_ctrls0_0.actBackEnergy         23302137510                       # Energy for active background per rank (pJ)
system.mem_ctrls0_0.preBackEnergy          1747634880                       # Energy for precharge background per rank (pJ)
system.mem_ctrls0_0.actPowerDownEnergy   101150984760                       # Energy for active power-down per rank (pJ)
system.mem_ctrls0_0.prePowerDownEnergy    45837197280                       # Energy for precharge power-down per rank (pJ)
system.mem_ctrls0_0.selfRefreshEnergy    250765833375                       # Energy for self refresh per rank (pJ)
system.mem_ctrls0_0.totalEnergy          463186255740                       # Total energy per rank (pJ)
system.mem_ctrls0_0.averagePower           326.433583                       # Core power per rank (mW)
system.mem_ctrls0_0.totalIdleTime        1362941274577                       # Total Idle time Per DRAM Rank
system.mem_ctrls0_0.memoryStateTime::IDLE   2982336243                       # Time in different power states
system.mem_ctrls0_0.memoryStateTime::REF  15706414000                       # Time in different power states
system.mem_ctrls0_0.memoryStateTime::SREF 1022059864811                       # Time in different power states
system.mem_ctrls0_0.memoryStateTime::PRE_PDN 119368698640                       # Time in different power states
system.mem_ctrls0_0.memoryStateTime::ACT  36989503437                       # Time in different power states
system.mem_ctrls0_0.memoryStateTime::ACT_PDN 221822722180                       # Time in different power states
system.mem_ctrls0_1.actEnergy               982085580                       # Energy for activate commands per rank (pJ)
system.mem_ctrls0_1.preEnergy               521990865                       # Energy for precharge commands per rank (pJ)
system.mem_ctrls0_1.readEnergy             1198663200                       # Energy for read commands per rank (pJ)
system.mem_ctrls0_1.writeEnergy             597716100                       # Energy for write commands per rank (pJ)
system.mem_ctrls0_1.refreshEnergy        37799130720.000008                       # Energy for refresh commands per rank (pJ)
system.mem_ctrls0_1.actBackEnergy         23384581740                       # Energy for active background per rank (pJ)
system.mem_ctrls0_1.preBackEnergy          1770653280                       # Energy for precharge background per rank (pJ)
system.mem_ctrls0_1.actPowerDownEnergy   102900713190                       # Energy for active power-down per rank (pJ)
system.mem_ctrls0_1.prePowerDownEnergy    47561663040                       # Energy for precharge power-down per rank (pJ)
system.mem_ctrls0_1.selfRefreshEnergy    248840787795                       # Energy for self refresh per rank (pJ)
system.mem_ctrls0_1.totalEnergy          465569927100                       # Total energy per rank (pJ)
system.mem_ctrls0_1.averagePower           328.113491                       # Core power per rank (mW)
system.mem_ctrls0_1.totalIdleTime        1362717536998                       # Total Idle time Per DRAM Rank
system.mem_ctrls0_1.memoryStateTime::IDLE   3010646157                       # Time in different power states
system.mem_ctrls0_1.memoryStateTime::REF  16051652000                       # Time in different power states
system.mem_ctrls0_1.memoryStateTime::SREF 1013492001011                       # Time in different power states
system.mem_ctrls0_1.memoryStateTime::PRE_PDN 123859318789                       # Time in different power states
system.mem_ctrls0_1.memoryStateTime::ACT  36855521723                       # Time in different power states
system.mem_ctrls0_1.memoryStateTime::ACT_PDN 225660399631                       # Time in different power states
system.mem_ctrls1.pwrStateResidencyTicks::UNDEFINED 191470239454311                       # Cumulative time (in ticks) in various power states
system.mem_ctrls1.bytes_read::cpu.inst            128                       # Number of bytes read from this memory
system.mem_ctrls1.bytes_read::cpu.data             64                       # Number of bytes read from this memory
system.mem_ctrls1.bytes_read::switch_cpus.inst        14144                       # Number of bytes read from this memory
system.mem_ctrls1.bytes_read::switch_cpus.data     18639552                       # Number of bytes read from this memory
system.mem_ctrls1.bytes_read::switch_cpus_1.inst          768                       # Number of bytes read from this memory
system.mem_ctrls1.bytes_read::switch_cpus_1.data      3165440                       # Number of bytes read from this memory
system.mem_ctrls1.bytes_read::total          21820096                       # Number of bytes read from this memory
system.mem_ctrls1.bytes_inst_read::cpu.inst          128                       # Number of instructions bytes read from this memory
system.mem_ctrls1.bytes_inst_read::switch_cpus.inst        14144                       # Number of instructions bytes read from this memory
system.mem_ctrls1.bytes_inst_read::switch_cpus_1.inst          768                       # Number of instructions bytes read from this memory
system.mem_ctrls1.bytes_inst_read::total        15040                       # Number of instructions bytes read from this memory
system.mem_ctrls1.bytes_written::writebacks     14977856                       # Number of bytes written to this memory
system.mem_ctrls1.bytes_written::total       14977856                       # Number of bytes written to this memory
system.mem_ctrls1.num_reads::cpu.inst               2                       # Number of read requests responded to by this memory
system.mem_ctrls1.num_reads::cpu.data               1                       # Number of read requests responded to by this memory
system.mem_ctrls1.num_reads::switch_cpus.inst          221                       # Number of read requests responded to by this memory
system.mem_ctrls1.num_reads::switch_cpus.data       291243                       # Number of read requests responded to by this memory
system.mem_ctrls1.num_reads::switch_cpus_1.inst           12                       # Number of read requests responded to by this memory
system.mem_ctrls1.num_reads::switch_cpus_1.data        49460                       # Number of read requests responded to by this memory
system.mem_ctrls1.num_reads::total             340939                       # Number of read requests responded to by this memory
system.mem_ctrls1.num_writes::writebacks       234029                       # Number of write requests responded to by this memory
system.mem_ctrls1.num_writes::total            234029                       # Number of write requests responded to by this memory
system.mem_ctrls1.bw_read::cpu.inst                90                       # Total read bandwidth from this memory (bytes/s)
system.mem_ctrls1.bw_read::cpu.data                45                       # Total read bandwidth from this memory (bytes/s)
system.mem_ctrls1.bw_read::switch_cpus.inst         9968                       # Total read bandwidth from this memory (bytes/s)
system.mem_ctrls1.bw_read::switch_cpus.data     13136348                       # Total read bandwidth from this memory (bytes/s)
system.mem_ctrls1.bw_read::switch_cpus_1.inst          541                       # Total read bandwidth from this memory (bytes/s)
system.mem_ctrls1.bw_read::switch_cpus_1.data      2230865                       # Total read bandwidth from this memory (bytes/s)
system.mem_ctrls1.bw_read::total             15377857                       # Total read bandwidth from this memory (bytes/s)
system.mem_ctrls1.bw_inst_read::cpu.inst           90                       # Instruction read bandwidth from this memory (bytes/s)
system.mem_ctrls1.bw_inst_read::switch_cpus.inst         9968                       # Instruction read bandwidth from this memory (bytes/s)
system.mem_ctrls1.bw_inst_read::switch_cpus_1.inst          541                       # Instruction read bandwidth from this memory (bytes/s)
system.mem_ctrls1.bw_inst_read::total           10600                       # Instruction read bandwidth from this memory (bytes/s)
system.mem_ctrls1.bw_write::writebacks       10555743                       # Write bandwidth from this memory (bytes/s)
system.mem_ctrls1.bw_write::total            10555743                       # Write bandwidth from this memory (bytes/s)
system.mem_ctrls1.bw_total::writebacks       10555743                       # Total bandwidth to/from this memory (bytes/s)
system.mem_ctrls1.bw_total::cpu.inst               90                       # Total bandwidth to/from this memory (bytes/s)
system.mem_ctrls1.bw_total::cpu.data               45                       # Total bandwidth to/from this memory (bytes/s)
system.mem_ctrls1.bw_total::switch_cpus.inst         9968                       # Total bandwidth to/from this memory (bytes/s)
system.mem_ctrls1.bw_total::switch_cpus.data     13136348                       # Total bandwidth to/from this memory (bytes/s)
system.mem_ctrls1.bw_total::switch_cpus_1.inst          541                       # Total bandwidth to/from this memory (bytes/s)
system.mem_ctrls1.bw_total::switch_cpus_1.data      2230865                       # Total bandwidth to/from this memory (bytes/s)
system.mem_ctrls1.bw_total::total            25933601                       # Total bandwidth to/from this memory (bytes/s)
system.mem_ctrls1.readReqs                     340939                       # Number of read requests accepted
system.mem_ctrls1.writeReqs                    234029                       # Number of write requests accepted
system.mem_ctrls1.readBursts                   340939                       # Number of DRAM read bursts, including those serviced by the write queue
system.mem_ctrls1.writeBursts                  234029                       # Number of DRAM write bursts, including those merged in the write queue
system.mem_ctrls1.bytesReadDRAM              21807936                       # Total number of bytes read from DRAM
system.mem_ctrls1.bytesReadWrQ                  12160                       # Total number of bytes read from write queue
system.mem_ctrls1.bytesWritten               14976896                       # Total number of bytes written to DRAM
system.mem_ctrls1.bytesReadSys               21820096                       # Total read bytes from the system interface side
system.mem_ctrls1.bytesWrittenSys            14977856                       # Total written bytes from the system interface side
system.mem_ctrls1.servicedByWrQ                   190                       # Number of DRAM read bursts serviced by the write queue
system.mem_ctrls1.mergedWrBursts                    0                       # Number of DRAM write bursts merged with an existing one
system.mem_ctrls1.neitherReadNorWriteReqs            0                       # Number of requests that are neither read nor write
system.mem_ctrls1.perBankRdBursts::0            21831                       # Per bank write bursts
system.mem_ctrls1.perBankRdBursts::1            21385                       # Per bank write bursts
system.mem_ctrls1.perBankRdBursts::2            22277                       # Per bank write bursts
system.mem_ctrls1.perBankRdBursts::3            22104                       # Per bank write bursts
system.mem_ctrls1.perBankRdBursts::4            20650                       # Per bank write bursts
system.mem_ctrls1.perBankRdBursts::5            21174                       # Per bank write bursts
system.mem_ctrls1.perBankRdBursts::6            21296                       # Per bank write bursts
system.mem_ctrls1.perBankRdBursts::7            21859                       # Per bank write bursts
system.mem_ctrls1.perBankRdBursts::8            21909                       # Per bank write bursts
system.mem_ctrls1.perBankRdBursts::9            20560                       # Per bank write bursts
system.mem_ctrls1.perBankRdBursts::10           20939                       # Per bank write bursts
system.mem_ctrls1.perBankRdBursts::11           20793                       # Per bank write bursts
system.mem_ctrls1.perBankRdBursts::12           20059                       # Per bank write bursts
system.mem_ctrls1.perBankRdBursts::13           21106                       # Per bank write bursts
system.mem_ctrls1.perBankRdBursts::14           20950                       # Per bank write bursts
system.mem_ctrls1.perBankRdBursts::15           21857                       # Per bank write bursts
system.mem_ctrls1.perBankWrBursts::0            15233                       # Per bank write bursts
system.mem_ctrls1.perBankWrBursts::1            15079                       # Per bank write bursts
system.mem_ctrls1.perBankWrBursts::2            15556                       # Per bank write bursts
system.mem_ctrls1.perBankWrBursts::3            15320                       # Per bank write bursts
system.mem_ctrls1.perBankWrBursts::4            13950                       # Per bank write bursts
system.mem_ctrls1.perBankWrBursts::5            14486                       # Per bank write bursts
system.mem_ctrls1.perBankWrBursts::6            14625                       # Per bank write bursts
system.mem_ctrls1.perBankWrBursts::7            15029                       # Per bank write bursts
system.mem_ctrls1.perBankWrBursts::8            14996                       # Per bank write bursts
system.mem_ctrls1.perBankWrBursts::9            13949                       # Per bank write bursts
system.mem_ctrls1.perBankWrBursts::10           14114                       # Per bank write bursts
system.mem_ctrls1.perBankWrBursts::11           14250                       # Per bank write bursts
system.mem_ctrls1.perBankWrBursts::12           13616                       # Per bank write bursts
system.mem_ctrls1.perBankWrBursts::13           13964                       # Per bank write bursts
system.mem_ctrls1.perBankWrBursts::14           14430                       # Per bank write bursts
system.mem_ctrls1.perBankWrBursts::15           15417                       # Per bank write bursts
system.mem_ctrls1.numRdRetry                        0                       # Number of times read queue was full causing retry
system.mem_ctrls1.numWrRetry                        0                       # Number of times write queue was full causing retry
system.mem_ctrls1.totGap                 1418620551741                       # Total gap between requests
system.mem_ctrls1.readPktSize::0                    0                       # Read request sizes (log2)
system.mem_ctrls1.readPktSize::1                    0                       # Read request sizes (log2)
system.mem_ctrls1.readPktSize::2                    0                       # Read request sizes (log2)
system.mem_ctrls1.readPktSize::3                    0                       # Read request sizes (log2)
system.mem_ctrls1.readPktSize::4                    0                       # Read request sizes (log2)
system.mem_ctrls1.readPktSize::5                    0                       # Read request sizes (log2)
system.mem_ctrls1.readPktSize::6               340939                       # Read request sizes (log2)
system.mem_ctrls1.writePktSize::0                   0                       # Write request sizes (log2)
system.mem_ctrls1.writePktSize::1                   0                       # Write request sizes (log2)
system.mem_ctrls1.writePktSize::2                   0                       # Write request sizes (log2)
system.mem_ctrls1.writePktSize::3                   0                       # Write request sizes (log2)
system.mem_ctrls1.writePktSize::4                   0                       # Write request sizes (log2)
system.mem_ctrls1.writePktSize::5                   0                       # Write request sizes (log2)
system.mem_ctrls1.writePktSize::6              234029                       # Write request sizes (log2)
system.mem_ctrls1.rdQLenPdf::0                 330667                       # What read queue length does an incoming req see
system.mem_ctrls1.rdQLenPdf::1                   9966                       # What read queue length does an incoming req see
system.mem_ctrls1.rdQLenPdf::2                     71                       # What read queue length does an incoming req see
system.mem_ctrls1.rdQLenPdf::3                     45                       # What read queue length does an incoming req see
system.mem_ctrls1.rdQLenPdf::4                      0                       # What read queue length does an incoming req see
system.mem_ctrls1.rdQLenPdf::5                      0                       # What read queue length does an incoming req see
system.mem_ctrls1.rdQLenPdf::6                      0                       # What read queue length does an incoming req see
system.mem_ctrls1.rdQLenPdf::7                      0                       # What read queue length does an incoming req see
system.mem_ctrls1.rdQLenPdf::8                      0                       # What read queue length does an incoming req see
system.mem_ctrls1.rdQLenPdf::9                      0                       # What read queue length does an incoming req see
system.mem_ctrls1.rdQLenPdf::10                     0                       # What read queue length does an incoming req see
system.mem_ctrls1.rdQLenPdf::11                     0                       # What read queue length does an incoming req see
system.mem_ctrls1.rdQLenPdf::12                     0                       # What read queue length does an incoming req see
system.mem_ctrls1.rdQLenPdf::13                     0                       # What read queue length does an incoming req see
system.mem_ctrls1.rdQLenPdf::14                     0                       # What read queue length does an incoming req see
system.mem_ctrls1.rdQLenPdf::15                     0                       # What read queue length does an incoming req see
system.mem_ctrls1.rdQLenPdf::16                     0                       # What read queue length does an incoming req see
system.mem_ctrls1.rdQLenPdf::17                     0                       # What read queue length does an incoming req see
system.mem_ctrls1.rdQLenPdf::18                     0                       # What read queue length does an incoming req see
system.mem_ctrls1.rdQLenPdf::19                     0                       # What read queue length does an incoming req see
system.mem_ctrls1.rdQLenPdf::20                     0                       # What read queue length does an incoming req see
system.mem_ctrls1.rdQLenPdf::21                     0                       # What read queue length does an incoming req see
system.mem_ctrls1.rdQLenPdf::22                     0                       # What read queue length does an incoming req see
system.mem_ctrls1.rdQLenPdf::23                     0                       # What read queue length does an incoming req see
system.mem_ctrls1.rdQLenPdf::24                     0                       # What read queue length does an incoming req see
system.mem_ctrls1.rdQLenPdf::25                     0                       # What read queue length does an incoming req see
system.mem_ctrls1.rdQLenPdf::26                     0                       # What read queue length does an incoming req see
system.mem_ctrls1.rdQLenPdf::27                     0                       # What read queue length does an incoming req see
system.mem_ctrls1.rdQLenPdf::28                     0                       # What read queue length does an incoming req see
system.mem_ctrls1.rdQLenPdf::29                     0                       # What read queue length does an incoming req see
system.mem_ctrls1.rdQLenPdf::30                     0                       # What read queue length does an incoming req see
system.mem_ctrls1.rdQLenPdf::31                     0                       # What read queue length does an incoming req see
system.mem_ctrls1.wrQLenPdf::0                      2                       # What write queue length does an incoming req see
system.mem_ctrls1.wrQLenPdf::1                      2                       # What write queue length does an incoming req see
system.mem_ctrls1.wrQLenPdf::2                      2                       # What write queue length does an incoming req see
system.mem_ctrls1.wrQLenPdf::3                      2                       # What write queue length does an incoming req see
system.mem_ctrls1.wrQLenPdf::4                      2                       # What write queue length does an incoming req see
system.mem_ctrls1.wrQLenPdf::5                      2                       # What write queue length does an incoming req see
system.mem_ctrls1.wrQLenPdf::6                      2                       # What write queue length does an incoming req see
system.mem_ctrls1.wrQLenPdf::7                      2                       # What write queue length does an incoming req see
system.mem_ctrls1.wrQLenPdf::8                      2                       # What write queue length does an incoming req see
system.mem_ctrls1.wrQLenPdf::9                      2                       # What write queue length does an incoming req see
system.mem_ctrls1.wrQLenPdf::10                     2                       # What write queue length does an incoming req see
system.mem_ctrls1.wrQLenPdf::11                     2                       # What write queue length does an incoming req see
system.mem_ctrls1.wrQLenPdf::12                     2                       # What write queue length does an incoming req see
system.mem_ctrls1.wrQLenPdf::13                     2                       # What write queue length does an incoming req see
system.mem_ctrls1.wrQLenPdf::14                     2                       # What write queue length does an incoming req see
system.mem_ctrls1.wrQLenPdf::15                 11234                       # What write queue length does an incoming req see
system.mem_ctrls1.wrQLenPdf::16                 11434                       # What write queue length does an incoming req see
system.mem_ctrls1.wrQLenPdf::17                 12923                       # What write queue length does an incoming req see
system.mem_ctrls1.wrQLenPdf::18                 13198                       # What write queue length does an incoming req see
system.mem_ctrls1.wrQLenPdf::19                 13207                       # What write queue length does an incoming req see
system.mem_ctrls1.wrQLenPdf::20                 13217                       # What write queue length does an incoming req see
system.mem_ctrls1.wrQLenPdf::21                 13239                       # What write queue length does an incoming req see
system.mem_ctrls1.wrQLenPdf::22                 13297                       # What write queue length does an incoming req see
system.mem_ctrls1.wrQLenPdf::23                 13255                       # What write queue length does an incoming req see
system.mem_ctrls1.wrQLenPdf::24                 13214                       # What write queue length does an incoming req see
system.mem_ctrls1.wrQLenPdf::25                 13202                       # What write queue length does an incoming req see
system.mem_ctrls1.wrQLenPdf::26                 13230                       # What write queue length does an incoming req see
system.mem_ctrls1.wrQLenPdf::27                 13207                       # What write queue length does an incoming req see
system.mem_ctrls1.wrQLenPdf::28                 13177                       # What write queue length does an incoming req see
system.mem_ctrls1.wrQLenPdf::29                 13186                       # What write queue length does an incoming req see
system.mem_ctrls1.wrQLenPdf::30                 13314                       # What write queue length does an incoming req see
system.mem_ctrls1.wrQLenPdf::31                 13170                       # What write queue length does an incoming req see
system.mem_ctrls1.wrQLenPdf::32                 13183                       # What write queue length does an incoming req see
system.mem_ctrls1.wrQLenPdf::33                    93                       # What write queue length does an incoming req see
system.mem_ctrls1.wrQLenPdf::34                    15                       # What write queue length does an incoming req see
system.mem_ctrls1.wrQLenPdf::35                     2                       # What write queue length does an incoming req see
system.mem_ctrls1.wrQLenPdf::36                     2                       # What write queue length does an incoming req see
system.mem_ctrls1.wrQLenPdf::37                     0                       # What write queue length does an incoming req see
system.mem_ctrls1.wrQLenPdf::38                     0                       # What write queue length does an incoming req see
system.mem_ctrls1.wrQLenPdf::39                     0                       # What write queue length does an incoming req see
system.mem_ctrls1.wrQLenPdf::40                     0                       # What write queue length does an incoming req see
system.mem_ctrls1.wrQLenPdf::41                     0                       # What write queue length does an incoming req see
system.mem_ctrls1.wrQLenPdf::42                     0                       # What write queue length does an incoming req see
system.mem_ctrls1.wrQLenPdf::43                     0                       # What write queue length does an incoming req see
system.mem_ctrls1.wrQLenPdf::44                     0                       # What write queue length does an incoming req see
system.mem_ctrls1.wrQLenPdf::45                     0                       # What write queue length does an incoming req see
system.mem_ctrls1.wrQLenPdf::46                     0                       # What write queue length does an incoming req see
system.mem_ctrls1.wrQLenPdf::47                     0                       # What write queue length does an incoming req see
system.mem_ctrls1.wrQLenPdf::48                     0                       # What write queue length does an incoming req see
system.mem_ctrls1.wrQLenPdf::49                     0                       # What write queue length does an incoming req see
system.mem_ctrls1.wrQLenPdf::50                     0                       # What write queue length does an incoming req see
system.mem_ctrls1.wrQLenPdf::51                     0                       # What write queue length does an incoming req see
system.mem_ctrls1.wrQLenPdf::52                     0                       # What write queue length does an incoming req see
system.mem_ctrls1.wrQLenPdf::53                     0                       # What write queue length does an incoming req see
system.mem_ctrls1.wrQLenPdf::54                     0                       # What write queue length does an incoming req see
system.mem_ctrls1.wrQLenPdf::55                     0                       # What write queue length does an incoming req see
system.mem_ctrls1.wrQLenPdf::56                     0                       # What write queue length does an incoming req see
system.mem_ctrls1.wrQLenPdf::57                     0                       # What write queue length does an incoming req see
system.mem_ctrls1.wrQLenPdf::58                     0                       # What write queue length does an incoming req see
system.mem_ctrls1.wrQLenPdf::59                     0                       # What write queue length does an incoming req see
system.mem_ctrls1.wrQLenPdf::60                     0                       # What write queue length does an incoming req see
system.mem_ctrls1.wrQLenPdf::61                     0                       # What write queue length does an incoming req see
system.mem_ctrls1.wrQLenPdf::62                     0                       # What write queue length does an incoming req see
system.mem_ctrls1.wrQLenPdf::63                     0                       # What write queue length does an incoming req see
system.mem_ctrls1.bytesPerActivate::samples       278564                       # Bytes accessed per row activation
system.mem_ctrls1.bytesPerActivate::mean   132.051636                       # Bytes accessed per row activation
system.mem_ctrls1.bytesPerActivate::gmean    98.449972                       # Bytes accessed per row activation
system.mem_ctrls1.bytesPerActivate::stdev   148.641287                       # Bytes accessed per row activation
system.mem_ctrls1.bytesPerActivate::0-127       175243     62.91%     62.91% # Bytes accessed per row activation
system.mem_ctrls1.bytesPerActivate::128-255        66908     24.02%     86.93% # Bytes accessed per row activation
system.mem_ctrls1.bytesPerActivate::256-383        19321      6.94%     93.86% # Bytes accessed per row activation
system.mem_ctrls1.bytesPerActivate::384-511         7913      2.84%     96.70% # Bytes accessed per row activation
system.mem_ctrls1.bytesPerActivate::512-639         2573      0.92%     97.63% # Bytes accessed per row activation
system.mem_ctrls1.bytesPerActivate::640-767         1643      0.59%     98.22% # Bytes accessed per row activation
system.mem_ctrls1.bytesPerActivate::768-895         1120      0.40%     98.62% # Bytes accessed per row activation
system.mem_ctrls1.bytesPerActivate::896-1023          965      0.35%     98.97% # Bytes accessed per row activation
system.mem_ctrls1.bytesPerActivate::1024-1151         2878      1.03%    100.00% # Bytes accessed per row activation
system.mem_ctrls1.bytesPerActivate::total       278564                       # Bytes accessed per row activation
system.mem_ctrls1.rdPerTurnAround::samples        13143                       # Reads before turning the bus around for writes
system.mem_ctrls1.rdPerTurnAround::mean     25.881838                       # Reads before turning the bus around for writes
system.mem_ctrls1.rdPerTurnAround::stdev   283.829682                       # Reads before turning the bus around for writes
system.mem_ctrls1.rdPerTurnAround::0-1023        13136     99.95%     99.95% # Reads before turning the bus around for writes
system.mem_ctrls1.rdPerTurnAround::1024-2047            2      0.02%     99.96% # Reads before turning the bus around for writes
system.mem_ctrls1.rdPerTurnAround::4096-5119            1      0.01%     99.97% # Reads before turning the bus around for writes
system.mem_ctrls1.rdPerTurnAround::7168-8191            1      0.01%     99.98% # Reads before turning the bus around for writes
system.mem_ctrls1.rdPerTurnAround::8192-9215            2      0.02%     99.99% # Reads before turning the bus around for writes
system.mem_ctrls1.rdPerTurnAround::27648-28671            1      0.01%    100.00% # Reads before turning the bus around for writes
system.mem_ctrls1.rdPerTurnAround::total        13143                       # Reads before turning the bus around for writes
system.mem_ctrls1.wrPerTurnAround::samples        13143                       # Writes before turning the bus around for reads
system.mem_ctrls1.wrPerTurnAround::mean     17.805220                       # Writes before turning the bus around for reads
system.mem_ctrls1.wrPerTurnAround::gmean    17.787371                       # Writes before turning the bus around for reads
system.mem_ctrls1.wrPerTurnAround::stdev     0.782327                       # Writes before turning the bus around for reads
system.mem_ctrls1.wrPerTurnAround::15               1      0.01%      0.01% # Writes before turning the bus around for reads
system.mem_ctrls1.wrPerTurnAround::16            1757     13.37%     13.38% # Writes before turning the bus around for reads
system.mem_ctrls1.wrPerTurnAround::17             124      0.94%     14.32% # Writes before turning the bus around for reads
system.mem_ctrls1.wrPerTurnAround::18           10311     78.45%     92.77% # Writes before turning the bus around for reads
system.mem_ctrls1.wrPerTurnAround::19             836      6.36%     99.13% # Writes before turning the bus around for reads
system.mem_ctrls1.wrPerTurnAround::20              99      0.75%     99.89% # Writes before turning the bus around for reads
system.mem_ctrls1.wrPerTurnAround::21              13      0.10%     99.98% # Writes before turning the bus around for reads
system.mem_ctrls1.wrPerTurnAround::22               2      0.02%    100.00% # Writes before turning the bus around for reads
system.mem_ctrls1.wrPerTurnAround::total        13143                       # Writes before turning the bus around for reads
system.mem_ctrls1.totQLat                 13624807694                       # Total ticks spent queuing
system.mem_ctrls1.totMemAccLat            20013851444                       # Total ticks spent from burst creation until serviced by the DRAM
system.mem_ctrls1.totBusLat                1703745000                       # Total ticks spent in databus transfers
system.mem_ctrls1.avgQLat                    39984.88                       # Average queueing delay per DRAM burst
system.mem_ctrls1.avgBusLat                   5000.00                       # Average bus latency per DRAM burst
system.mem_ctrls1.avgMemAccLat               58734.88                       # Average memory access latency per DRAM burst
system.mem_ctrls1.avgRdBW                       15.37                       # Average DRAM read bandwidth in MiByte/s
system.mem_ctrls1.avgWrBW                       10.56                       # Average achieved write bandwidth in MiByte/s
system.mem_ctrls1.avgRdBWSys                    15.38                       # Average system read bandwidth in MiByte/s
system.mem_ctrls1.avgWrBWSys                    10.56                       # Average system write bandwidth in MiByte/s
system.mem_ctrls1.peakBW                     12800.00                       # Theoretical peak bandwidth in MiByte/s
system.mem_ctrls1.busUtil                        0.20                       # Data bus utilization in percentage
system.mem_ctrls1.busUtilRead                    0.12                       # Data bus utilization in percentage for reads
system.mem_ctrls1.busUtilWrite                   0.08                       # Data bus utilization in percentage for writes
system.mem_ctrls1.avgRdQLen                      1.00                       # Average read queue length when enqueuing
system.mem_ctrls1.avgWrQLen                     23.25                       # Average write queue length when enqueuing
system.mem_ctrls1.readRowHits                  179729                       # Number of row buffer hits during reads
system.mem_ctrls1.writeRowHits                 116470                       # Number of row buffer hits during writes
system.mem_ctrls1.readRowHitRate                52.75                       # Row buffer hit rate for reads
system.mem_ctrls1.writeRowHitRate               49.77                       # Row buffer hit rate for writes
system.mem_ctrls1.avgGap                   2467303.49                       # Average gap between requests
system.mem_ctrls1.pageHitRate                   51.53                       # Row buffer hit rate, read and write combined
system.mem_ctrls1_0.actEnergy              1004305260                       # Energy for activate commands per rank (pJ)
system.mem_ctrls1_0.preEnergy               533800905                       # Energy for precharge commands per rank (pJ)
system.mem_ctrls1_0.readEnergy             1232192640                       # Energy for read commands per rank (pJ)
system.mem_ctrls1_0.writeEnergy             622631160                       # Energy for write commands per rank (pJ)
system.mem_ctrls1_0.refreshEnergy        37008089040.000008                       # Energy for refresh commands per rank (pJ)
system.mem_ctrls1_0.actBackEnergy         23270944830                       # Energy for active background per rank (pJ)
system.mem_ctrls1_0.preBackEnergy          1749736320                       # Energy for precharge background per rank (pJ)
system.mem_ctrls1_0.actPowerDownEnergy   101193107760                       # Energy for active power-down per rank (pJ)
system.mem_ctrls1_0.prePowerDownEnergy    45934776480                       # Energy for precharge power-down per rank (pJ)
system.mem_ctrls1_0.selfRefreshEnergy    250697288100                       # Energy for self refresh per rank (pJ)
system.mem_ctrls1_0.totalEnergy          463260774855                       # Total energy per rank (pJ)
system.mem_ctrls1_0.averagePower           326.486102                       # Core power per rank (mW)
system.mem_ctrls1_0.totalIdleTime        1362997774411                       # Total Idle time Per DRAM Rank
system.mem_ctrls1_0.memoryStateTime::IDLE   2989435590                       # Time in different power states
system.mem_ctrls1_0.memoryStateTime::REF  15715670000                       # Time in different power states
system.mem_ctrls1_0.memoryStateTime::SREF 1021772845561                       # Time in different power states
system.mem_ctrls1_0.memoryStateTime::PRE_PDN 119622807783                       # Time in different power states
system.mem_ctrls1_0.memoryStateTime::ACT  36912963944                       # Time in different power states
system.mem_ctrls1_0.memoryStateTime::ACT_PDN 221915816433                       # Time in different power states
system.mem_ctrls1_1.actEnergy               984641700                       # Energy for activate commands per rank (pJ)
system.mem_ctrls1_1.preEnergy               523349475                       # Energy for precharge commands per rank (pJ)
system.mem_ctrls1_1.readEnergy             1200755220                       # Energy for read commands per rank (pJ)
system.mem_ctrls1_1.writeEnergy             598921920                       # Energy for write commands per rank (pJ)
system.mem_ctrls1_1.refreshEnergy        37900546320.000008                       # Energy for refresh commands per rank (pJ)
system.mem_ctrls1_1.actBackEnergy         23365869780                       # Energy for active background per rank (pJ)
system.mem_ctrls1_1.preBackEnergy          1765182720                       # Energy for precharge background per rank (pJ)
system.mem_ctrls1_1.actPowerDownEnergy   103059177180                       # Energy for active power-down per rank (pJ)
system.mem_ctrls1_1.prePowerDownEnergy    47783950560                       # Energy for precharge power-down per rank (pJ)
system.mem_ctrls1_1.selfRefreshEnergy    248662821210                       # Energy for self refresh per rank (pJ)
system.mem_ctrls1_1.totalEnergy          465857303985                       # Total energy per rank (pJ)
system.mem_ctrls1_1.averagePower           328.316022                       # Core power per rank (mW)
system.mem_ctrls1_1.totalIdleTime        1362765652927                       # Total Idle time Per DRAM Rank
system.mem_ctrls1_1.memoryStateTime::IDLE   2991363111                       # Time in different power states
system.mem_ctrls1_1.memoryStateTime::REF  16094732000                       # Time in different power states
system.mem_ctrls1_1.memoryStateTime::SREF 1012620534469                       # Time in different power states
system.mem_ctrls1_1.memoryStateTime::PRE_PDN 124437936577                       # Time in different power states
system.mem_ctrls1_1.memoryStateTime::ACT  36777392352                       # Time in different power states
system.mem_ctrls1_1.memoryStateTime::ACT_PDN 226007580802                       # Time in different power states
system.pwrStateResidencyTicks::UNDEFINED 191470239454311                       # Cumulative time (in ticks) in various power states
system.cpu.branchPred.lookups                       4                       # Number of BP lookups
system.cpu.branchPred.condPredicted                 2                       # Number of conditional branches predicted
system.cpu.branchPred.condIncorrect                 2                       # Number of conditional branches incorrect
system.cpu.branchPred.BTBLookups                    2                       # Number of BTB lookups
system.cpu.branchPred.BTBHits                       0                       # Number of BTB hits
system.cpu.branchPred.BTBCorrect                    0                       # Number of correct BTB predictions (this stat may not work properly.
system.cpu.branchPred.BTBHitPct              0.000000                       # BTB Hit Percentage
system.cpu.branchPred.usedRAS                       0                       # Number of times the RAS was used to get a target.
system.cpu.branchPred.RASInCorrect                  0                       # Number of incorrect RAS predictions.
system.cpu.branchPred.indirectLookups               0                       # Number of indirect predictor lookups.
system.cpu.branchPred.indirectHits                  0                       # Number of indirect target hits.
system.cpu.branchPred.indirectMisses                0                       # Number of indirect misses.
system.cpu.branchPredindirectMispredicted            0                       # Number of mispredicted indirect branches.
system.cpu_voltage_domain.voltage                   1                       # Voltage in Volts
system.cpu_clk_domain.clock                       333                       # Clock period in ticks
system.cpu.dtb.fetch_hits                           0                       # ITB hits
system.cpu.dtb.fetch_misses                         0                       # ITB misses
system.cpu.dtb.fetch_acv                            0                       # ITB acv
system.cpu.dtb.fetch_accesses                       0                       # ITB accesses
system.cpu.dtb.read_hits                            6                       # DTB read hits
system.cpu.dtb.read_misses                          0                       # DTB read misses
system.cpu.dtb.read_acv                             0                       # DTB read access violations
system.cpu.dtb.read_accesses                        6                       # DTB read accesses
system.cpu.dtb.write_hits                           1                       # DTB write hits
system.cpu.dtb.write_misses                         0                       # DTB write misses
system.cpu.dtb.write_acv                            0                       # DTB write access violations
system.cpu.dtb.write_accesses                       1                       # DTB write accesses
system.cpu.dtb.data_hits                            7                       # DTB hits
system.cpu.dtb.data_misses                          0                       # DTB misses
system.cpu.dtb.data_acv                             0                       # DTB access violations
system.cpu.dtb.data_accesses                        7                       # DTB accesses
system.cpu.itb.fetch_hits                           7                       # ITB hits
system.cpu.itb.fetch_misses                         0                       # ITB misses
system.cpu.itb.fetch_acv                            0                       # ITB acv
system.cpu.itb.fetch_accesses                       7                       # ITB accesses
system.cpu.itb.read_hits                            0                       # DTB read hits
system.cpu.itb.read_misses                          0                       # DTB read misses
system.cpu.itb.read_acv                             0                       # DTB read access violations
system.cpu.itb.read_accesses                        0                       # DTB read accesses
system.cpu.itb.write_hits                           0                       # DTB write hits
system.cpu.itb.write_misses                         0                       # DTB write misses
system.cpu.itb.write_acv                            0                       # DTB write access violations
system.cpu.itb.write_accesses                       0                       # DTB write accesses
system.cpu.itb.data_hits                            0                       # DTB hits
system.cpu.itb.data_misses                          0                       # DTB misses
system.cpu.itb.data_acv                             0                       # DTB access violations
system.cpu.itb.data_accesses                        0                       # DTB accesses
system.cpu.workload.num_syscalls                    0                       # Number of system calls
system.cpu.pwrStateResidencyTicks::ON    1418929539311                       # Cumulative time (in ticks) in various power states
system.cpu.numCycles                             1458                       # number of cpu cycles simulated
system.cpu.numWorkItemsStarted                      0                       # number of work items this cpu started
system.cpu.numWorkItemsCompleted                    0                       # number of work items this cpu completed
system.cpu.fetch.icacheStallCycles                 50                       # Number of cycles fetch is stalled on an Icache miss
system.cpu.fetch.Insts                             19                       # Number of instructions fetch has processed
system.cpu.fetch.Branches                           4                       # Number of branches that fetch encountered
system.cpu.fetch.Cycles                             4                       # Number of cycles fetch has run and was not squashing or blocked
system.cpu.fetch.SquashCycles                       7                       # Number of cycles fetch has spent squashing
system.cpu.fetch.PendingDrainCycles                 6                       # Number of cycles fetch has spent waiting on pipes to drain
system.cpu.fetch.CacheLines                         7                       # Number of cache lines fetched
system.cpu.fetch.IcacheSquashes                     4                       # Number of outstanding Icache misses that were squashed
system.cpu.fetch.rateDist::samples                 63                       # Number of instructions fetched each cycle (Total)
system.cpu.fetch.rateDist::mean              0.301587                       # Number of instructions fetched each cycle (Total)
system.cpu.fetch.rateDist::stdev             1.432738                       # Number of instructions fetched each cycle (Total)
[...]
system.switch_cpus_1.iq.int_inst_queue_writes    562718951                       # Number of integer instruction queue writes
system.switch_cpus_1.iq.int_inst_queue_wakeup_accesses    317539035                       # Number of integer instruction queue wakeup accesses
system.switch_cpus_1.iq.fp_inst_queue_reads          222                       # Number of floating instruction queue reads
system.switch_cpus_1.iq.fp_inst_queue_writes          177                       # Number of floating instruction queue writes
system.switch_cpus_1.iq.fp_inst_queue_wakeup_accesses          101                       # Number of floating instruction queue wakeup accesses
system.switch_cpus_1.iq.int_alu_accesses    342623573                       # Number of integer alu accesses
system.switch_cpus_1.iq.fp_alu_accesses           111                       # Number of floating point alu accesses
system.switch_cpus_1.iew.lsq.thread0.forwLoads      3735198                       # Number of loads that had data forwarded from stores
system.switch_cpus_1.iew.lsq.thread0.invAddrLoads            0                       # Number of loads ignored due to an invalid address
system.switch_cpus_1.iew.lsq.thread0.squashedLoads     43290650                       # Number of loads squashed
system.switch_cpus_1.iew.lsq.thread0.ignoredResponses        25051                       # Number of memory responses ignored because the instruction is squashed
system.switch_cpus_1.iew.lsq.thread0.memOrderViolation        13888                       # Number of memory ordering violations
system.switch_cpus_1.iew.lsq.thread0.squashedStores     13466003                       # Number of stores squashed
system.switch_cpus_1.iew.lsq.thread0.invAddrSwpfs            0                       # Number of software prefetches ignored due to an invalid address
system.switch_cpus_1.iew.lsq.thread0.blockedLoads            0                       # Number of blocked loads due to partial load-store forwarding
system.switch_cpus_1.iew.lsq.thread0.rescheduledLoads            0                       # Number of loads that were rescheduled
system.switch_cpus_1.iew.lsq.thread0.cacheBlocked      6423226                       # Number of times an access to memory failed due to the cache being blocked
system.switch_cpus_1.iew.iewIdleCycles              0                       # Number of cycles IEW is idle
system.switch_cpus_1.iew.iewSquashCycles      3293832                       # Number of cycles IEW is squashing
system.switch_cpus_1.iew.iewBlockCycles      60153058                       # Number of cycles IEW is blocking
system.switch_cpus_1.iew.iewUnblockCycles     20562612                       # Number of cycles IEW is unblocking
system.switch_cpus_1.iew.iewDispatchedInsts    382048298                       # Number of instructions dispatched to IQ
system.switch_cpus_1.iew.iewDispSquashedInsts       967643                       # Number of squashed instructions skipped by dispatch
system.switch_cpus_1.iew.iewDispLoadInsts     92723398                       # Number of dispatched load instructions
system.switch_cpus_1.iew.iewDispStoreInsts     27531491                       # Number of dispatched store instructions
system.switch_cpus_1.iew.iewDispNonSpecInsts            0                       # Number of dispatched non-speculative instructions
system.switch_cpus_1.iew.iewIQFullEvents       237026                       # Number of times the IQ has become full, causing a stall
system.switch_cpus_1.iew.iewLSQFullEvents     20179450                       # Number of times the LSQ has become full, causing a stall
system.switch_cpus_1.iew.memOrderViolationEvents        13888                       # Number of memory order violations
system.switch_cpus_1.iew.predictedTakenIncorrect      1689295                       # Number of branches that were predicted taken incorrectly
system.switch_cpus_1.iew.predictedNotTakenIncorrect      1803157                       # Number of branches that were predicted not taken incorrectly
system.switch_cpus_1.iew.branchMispredicts      3492452                       # Number of branch mispredicts detected at execute
system.switch_cpus_1.iew.iewExecutedInsts    331845856                       # Number of executed instructions
system.switch_cpus_1.iew.iewExecLoadInsts     87310747                       # Number of load instructions executed
system.switch_cpus_1.iew.iewExecSquashedInsts      6249215                       # Number of squashed instructions skipped in execute
system.switch_cpus_1.iew.exec_swp                   0                       # number of swp insts executed
system.switch_cpus_1.iew.exec_nop              695185                       # number of nop insts executed
system.switch_cpus_1.iew.exec_refs          108277128                       # number of memory reference insts executed
system.switch_cpus_1.iew.exec_branches       38582222                       # Number of branches executed
system.switch_cpus_1.iew.exec_stores         20966381                       # Number of stores executed
system.switch_cpus_1.iew.exec_rate           1.255677                       # Inst execution rate
system.switch_cpus_1.iew.wb_sent            321106817                       # cumulative count of insts sent to commit
system.switch_cpus_1.iew.wb_count           317539136                       # cumulative count of insts written-back
system.switch_cpus_1.iew.wb_producers       206598164                       # num instructions producing a value
system.switch_cpus_1.iew.wb_consumers       271614817                       # num instructions consuming a value
system.switch_cpus_1.iew.wb_rate             1.201542                       # insts written-back per cycle
system.switch_cpus_1.iew.wb_fanout           0.760629                       # average fanout of values written-back
system.switch_cpus_1.commit.commitSquashedInsts    172318131                       # The number of squashed insts skipped by commit
system.switch_cpus_1.commit.branchMispredicts      2847872                       # The number of times a branch was mispredicted
system.switch_cpus_1.commit.committed_per_cycle::samples    240309887                       # Number of insts commited each cycle
system.switch_cpus_1.commit.committed_per_cycle::mean     0.834501                       # Number of insts commited each cycle
system.switch_cpus_1.commit.committed_per_cycle::stdev     2.058859                       # Number of insts commited each cycle
system.switch_cpus_1.commit.committed_per_cycle::underflows            0      0.00%      0.00% # Number of insts commited each cycle
system.switch_cpus_1.commit.committed_per_cycle::0    186461615     77.59%     77.59% # Number of insts commited each cycle
system.switch_cpus_1.commit.committed_per_cycle::1     17103973      7.12%     84.71% # Number of insts commited each cycle
system.switch_cpus_1.commit.committed_per_cycle::2     11052651      4.60%     89.31% # Number of insts commited each cycle
system.switch_cpus_1.commit.committed_per_cycle::3      4947845      2.06%     91.37% # Number of insts commited each cycle
system.switch_cpus_1.commit.committed_per_cycle::4      2526492      1.05%     92.42% # Number of insts commited each cycle
system.switch_cpus_1.commit.committed_per_cycle::5      1895480      0.79%     93.21% # Number of insts commited each cycle
system.switch_cpus_1.commit.committed_per_cycle::6      1412444      0.59%     93.80% # Number of insts commited each cycle
system.switch_cpus_1.commit.committed_per_cycle::7       847006      0.35%     94.15% # Number of insts commited each cycle
system.switch_cpus_1.commit.committed_per_cycle::8     14062381      5.85%    100.00% # Number of insts commited each cycle
system.switch_cpus_1.commit.committed_per_cycle::overflows            0      0.00%    100.00% # Number of insts commited each cycle
system.switch_cpus_1.commit.committed_per_cycle::min_value            0                       # Number of insts commited each cycle
system.switch_cpus_1.commit.committed_per_cycle::max_value            8                       # Number of insts commited each cycle
system.switch_cpus_1.commit.committed_per_cycle::total    240309887                       # Number of insts commited each cycle
system.switch_cpus_1.commit.committedInsts    200538932                       # Number of instructions committed
system.switch_cpus_1.commit.committedOps    200538932                       # Number of ops (including micro ops) committed
system.switch_cpus_1.commit.swp_count               0                       # Number of s/w prefetches committed
system.switch_cpus_1.commit.refs             63498195                       # Number of memory references committed
system.switch_cpus_1.commit.loads            49432720                       # Number of loads committed
system.switch_cpus_1.commit.membars                 0                       # Number of memory barriers committed
system.switch_cpus_1.commit.branches         24329166                       # Number of branches committed
system.switch_cpus_1.commit.fp_insts               91                       # Number of committed floating point instructions.
system.switch_cpus_1.commit.int_insts       197997126                       # Number of committed integer instructions.
system.switch_cpus_1.commit.function_calls       749984                       # Number of function calls committed.
system.switch_cpus_1.commit.op_class_0::No_OpClass       538941      0.27%      0.27% # Class of committed instruction
system.switch_cpus_1.commit.op_class_0::IntAlu    136501742     68.07%     68.34% # Class of committed instruction
system.switch_cpus_1.commit.op_class_0::IntMult            0      0.00%     68.34% # Class of committed instruction
system.switch_cpus_1.commit.op_class_0::IntDiv            0      0.00%     68.34% # Class of committed instruction
system.switch_cpus_1.commit.op_class_0::FloatAdd           30      0.00%     68.34% # Class of committed instruction
system.switch_cpus_1.commit.op_class_0::FloatCmp            0      0.00%     68.34% # Class of committed instruction
system.switch_cpus_1.commit.op_class_0::FloatCvt           18      0.00%     68.34% # Class of committed instruction
system.switch_cpus_1.commit.op_class_0::FloatMult            0      0.00%     68.34% # Class of committed instruction
system.switch_cpus_1.commit.op_class_0::FloatMultAcc            0      0.00%     68.34% # Class of committed instruction
system.switch_cpus_1.commit.op_class_0::FloatDiv            6      0.00%     68.34% # Class of committed instruction
system.switch_cpus_1.commit.op_class_0::FloatMisc            0      0.00%     68.34% # Class of committed instruction
system.switch_cpus_1.commit.op_class_0::FloatSqrt            0      0.00%     68.34% # Class of committed instruction
system.switch_cpus_1.commit.op_class_0::SimdAdd            0      0.00%     68.34% # Class of committed instruction
system.switch_cpus_1.commit.op_class_0::SimdAddAcc            0      0.00%     68.34% # Class of committed instruction
system.switch_cpus_1.commit.op_class_0::SimdAlu            0      0.00%     68.34% # Class of committed instruction
system.switch_cpus_1.commit.op_class_0::SimdCmp            0      0.00%     68.34% # Class of committed instruction
system.switch_cpus_1.commit.op_class_0::SimdCvt            0      0.00%     68.34% # Class of committed instruction
system.switch_cpus_1.commit.op_class_0::SimdMisc            0      0.00%     68.34% # Class of committed instruction
system.switch_cpus_1.commit.op_class_0::SimdMult            0      0.00%     68.34% # Class of committed instruction
system.switch_cpus_1.commit.op_class_0::SimdMultAcc            0      0.00%     68.34% # Class of committed instruction
system.switch_cpus_1.commit.op_class_0::SimdShift            0      0.00%     68.34% # Class of committed instruction
system.switch_cpus_1.commit.op_class_0::SimdShiftAcc            0      0.00%     68.34% # Class of committed instruction
system.switch_cpus_1.commit.op_class_0::SimdSqrt            0      0.00%     68.34% # Class of committed instruction
system.switch_cpus_1.commit.op_class_0::SimdFloatAdd            0      0.00%     68.34% # Class of committed instruction
system.switch_cpus_1.commit.op_class_0::SimdFloatAlu            0      0.00%     68.34% # Class of committed instruction
system.switch_cpus_1.commit.op_class_0::SimdFloatCmp            0      0.00%     68.34% # Class of committed instruction
system.switch_cpus_1.commit.op_class_0::SimdFloatCvt            0      0.00%     68.34% # Class of committed instruction
system.switch_cpus_1.commit.op_class_0::SimdFloatDiv            0      0.00%     68.34% # Class of committed instruction
system.switch_cpus_1.commit.op_class_0::SimdFloatMisc            0      0.00%     68.34% # Class of committed instruction
system.switch_cpus_1.commit.op_class_0::SimdFloatMult            0      0.00%     68.34% # Class of committed instruction
system.switch_cpus_1.commit.op_class_0::SimdFloatMultAcc            0      0.00%     68.34% # Class of committed instruction
system.switch_cpus_1.commit.op_class_0::SimdFloatSqrt            0      0.00%     68.34% # Class of committed instruction
system.switch_cpus_1.commit.op_class_0::MemRead     49432701     24.65%     92.99% # Class of committed instruction
system.switch_cpus_1.commit.op_class_0::MemWrite     14065457      7.01%    100.00% # Class of committed instruction
system.switch_cpus_1.commit.op_class_0::FloatMemRead           19      0.00%    100.00% # Class of committed instruction
system.switch_cpus_1.commit.op_class_0::FloatMemWrite           18      0.00%    100.00% # Class of committed instruction
system.switch_cpus_1.commit.op_class_0::IprAccess            0      0.00%    100.00% # Class of committed instruction
system.switch_cpus_1.commit.op_class_0::InstPrefetch            0      0.00%    100.00% # Class of committed instruction
system.switch_cpus_1.commit.op_class_0::total    200538932                       # Class of committed instruction
system.switch_cpus_1.commit.bw_lim_events     14062381                       # number cycles where commit BW limit reached
system.switch_cpus_1.rob.rob_reads          593448945                       # The number of ROB reads
system.switch_cpus_1.rob.rob_writes         769679064                       # The number of ROB writes
system.switch_cpus_1.timesIdled                   332                       # Number of times that the entire CPU went into an idle state and unscheduled itself
system.switch_cpus_1.idleCycles                 31193                       # Total number of cycles that the CPU has spent unscheduled due to idling
system.switch_cpus_1.committedInsts         200000003                       # Number of Instructions Simulated
system.switch_cpus_1.committedOps           200000003                       # Number of Ops (including micro ops) Simulated
system.switch_cpus_1.cpi                     1.321382                       # CPI: Cycles Per Instruction
system.switch_cpus_1.cpi_total               1.321382                       # CPI: Total CPI of All Threads
system.switch_cpus_1.ipc                     0.756784                       # IPC: Instructions Per Cycle
system.switch_cpus_1.ipc_total               0.756784                       # IPC: Total IPC of All Threads
system.switch_cpus_1.int_regfile_reads      451596133                       # number of integer regfile reads
system.switch_cpus_1.int_regfile_writes     261513954                       # number of integer regfile writes
system.switch_cpus_1.fp_regfile_reads              63                       # number of floating regfile reads
system.switch_cpus_1.fp_regfile_writes            103                       # number of floating regfile writes
system.switch_cpus_1.misc_regfile_reads            12                       # number of misc regfile reads
system.switch_cpus_1.misc_regfile_writes            6                       # number of misc regfile writes
system.tol3bus.snoop_filter.tot_requests     15148984                       # Total number of requests made to the snoop filter.
system.tol3bus.snoop_filter.hit_single_requests      7572349                       # Number of requests hitting in the snoop filter with a single holder of the requested data.
system.tol3bus.snoop_filter.hit_multi_requests            0                       # Number of requests hitting in the snoop filter with multiple (>1) holders of the requested data.
system.tol3bus.snoop_filter.tot_snoops            470                       # Total number of snoops made to the snoop filter.
system.tol3bus.snoop_filter.hit_single_snoops          470                       # Number of snoops hitting in the snoop filter with a single holder of the requested data.
system.tol3bus.snoop_filter.hit_multi_snoops            0                       # Number of snoops hitting in the snoop filter with multiple (>1) holders of the requested data.
system.tol3bus.pwrStateResidencyTicks::UNDEFINED 191470239454311                       # Cumulative time (in ticks) in various power states
system.tol3bus.trans_dist::ReadResp           5401233                       # Transaction distribution
system.tol3bus.trans_dist::WritebackDirty      4580785                       # Transaction distribution
system.tol3bus.trans_dist::CleanEvict         3607119                       # Transaction distribution
system.tol3bus.trans_dist::UpgradeReq               5                       # Transaction distribution
system.tol3bus.trans_dist::UpgradeResp              5                       # Transaction distribution
system.tol3bus.trans_dist::ReadExReq          2175402                       # Transaction distribution
system.tol3bus.trans_dist::ReadExResp         2175402                       # Transaction distribution
system.tol3bus.trans_dist::ReadSharedReq      5401233                       # Transaction distribution
system.tol3bus.pkt_count_system.cpu.l2.mem_side::system.l3.cpu_side     22725624                       # Packet count per connected master and slave (bytes)
system.tol3bus.pkt_size_system.cpu.l2.mem_side::system.l3.cpu_side    748158528                       # Cumulative packet size per connected master and slave (bytes)
system.tol3bus.snoops                          615560                       # Total snoops (count)
system.tol3bus.snoopTraffic                  29916352                       # Total snoop traffic (bytes)
system.tol3bus.snoop_fanout::samples          8192200                       # Request fanout histogram
system.tol3bus.snoop_fanout::mean            0.000057                       # Request fanout histogram
system.tol3bus.snoop_fanout::stdev           0.007574                       # Request fanout histogram
system.tol3bus.snoop_fanout::underflows             0      0.00%      0.00% # Request fanout histogram
system.tol3bus.snoop_fanout::0                8191730     99.99%     99.99% # Request fanout histogram
system.tol3bus.snoop_fanout::1                    470      0.01%    100.00% # Request fanout histogram
system.tol3bus.snoop_fanout::overflows              0      0.00%    100.00% # Request fanout histogram
system.tol3bus.snoop_fanout::min_value              0                       # Request fanout histogram
system.tol3bus.snoop_fanout::max_value              1                       # Request fanout histogram
system.tol3bus.snoop_fanout::total            8192200                       # Request fanout histogram
system.tol3bus.reqLayer0.occupancy         6414354558                       # Layer occupancy (ticks)
system.tol3bus.reqLayer0.utilization              0.5                       # Layer utilization (%)
system.tol3bus.respLayer0.occupancy        5046040575                       # Layer occupancy (ticks)
system.tol3bus.respLayer0.utilization             0.4                       # Layer utilization (%)

---------- End Simulation Statistics   ----------
