
---------- Begin Simulation Statistics ----------
sim_seconds                                  2.483378                       # Number of seconds simulated
sim_ticks                                2483378393076                       # Number of ticks simulated
final_tick                               72513350974422                       # Number of ticks from beginning of simulation (restored from checkpoints and never reset)
sim_freq                                 1000000000000                       # Frequency of simulated ticks
host_inst_rate                                 241492                       # Simulator instruction rate (inst/s)
host_op_rate                                   241492                       # Simulator op (including micro ops) rate (op/s)
host_tick_rate                              499764017                       # Simulator tick rate (ticks/s)
host_mem_usage                                2503468                       # Number of bytes of host memory used
host_seconds                                  4969.10                       # Real time elapsed on the host
sim_insts                                  1200000011                       # Number of instructions simulated
sim_ops                                    1200000011                       # Number of ops (including micro ops) simulated
system.voltage_domain.voltage                       1                       # Voltage in Volts
system.clk_domain.clock                          1000                       # Clock period in ticks
system.mem_ctrls0.pwrStateResidencyTicks::UNDEFINED 72513350974422                       # Cumulative time (in ticks) in various power states
system.mem_ctrls0.bytes_read::cpu.inst             64                       # Number of bytes read from this memory
system.mem_ctrls0.bytes_read::cpu.data            128                       # Number of bytes read from this memory
system.mem_ctrls0.bytes_read::switch_cpus.inst       150400                       # Number of bytes read from this memory
system.mem_ctrls0.bytes_read::switch_cpus.data    408031552                       # Number of bytes read from this memory
system.mem_ctrls0.bytes_read::switch_cpus_1.inst        43712                       # Number of bytes read from this memory
system.mem_ctrls0.bytes_read::switch_cpus_1.data     84453696                       # Number of bytes read from this memory
system.mem_ctrls0.bytes_read::total         492679552                       # Number of bytes read from this memory
system.mem_ctrls0.bytes_inst_read::cpu.inst           64                       # Number of instructions bytes read from this memory
system.mem_ctrls0.bytes_inst_read::switch_cpus.inst       150400                       # Number of instructions bytes read from this memory
system.mem_ctrls0.bytes_inst_read::switch_cpus_1.inst        43712                       # Number of instructions bytes read from this memory
system.mem_ctrls0.bytes_inst_read::total       194176                       # Number of instructions bytes read from this memory
system.mem_ctrls0.bytes_written::writebacks    160803904                       # Number of bytes written to this memory
system.mem_ctrls0.bytes_written::total      160803904                       # Number of bytes written to this memory
system.mem_ctrls0.num_reads::cpu.inst               1                       # Number of read requests responded to by this memory
system.mem_ctrls0.num_reads::cpu.data               2                       # Number of read requests responded to by this memory
system.mem_ctrls0.num_reads::switch_cpus.inst         2350                       # Number of read requests responded to by this memory
system.mem_ctrls0.num_reads::switch_cpus.data      6375493                       # Number of read requests responded to by this memory
system.mem_ctrls0.num_reads::switch_cpus_1.inst          683                       # Number of read requests responded to by this memory
system.mem_ctrls0.num_reads::switch_cpus_1.data      1319589                       # Number of read requests responded to by this memory
system.mem_ctrls0.num_reads::total            7698118                       # Number of read requests responded to by this memory
system.mem_ctrls0.num_writes::writebacks      2512561                       # Number of write requests responded to by this memory
system.mem_ctrls0.num_writes::total           2512561                       # Number of write requests responded to by this memory
system.mem_ctrls0.bw_read::cpu.inst                26                       # Total read bandwidth from this memory (bytes/s)
system.mem_ctrls0.bw_read::cpu.data                52                       # Total read bandwidth from this memory (bytes/s)
system.mem_ctrls0.bw_read::switch_cpus.inst        60563                       # Total read bandwidth from this memory (bytes/s)
system.mem_ctrls0.bw_read::switch_cpus.data    164305026                       # Total read bandwidth from this memory (bytes/s)
system.mem_ctrls0.bw_read::switch_cpus_1.inst        17602                       # Total read bandwidth from this memory (bytes/s)
system.mem_ctrls0.bw_read::switch_cpus_1.data     34007583                       # Total read bandwidth from this memory (bytes/s)
system.mem_ctrls0.bw_read::total            198390851                       # Total read bandwidth from this memory (bytes/s)
system.mem_ctrls0.bw_inst_read::cpu.inst           26                       # Instruction read bandwidth from this memory (bytes/s)
system.mem_ctrls0.bw_inst_read::switch_cpus.inst        60563                       # Instruction read bandwidth from this memory (bytes/s)
system.mem_ctrls0.bw_inst_read::switch_cpus_1.inst        17602                       # Instruction read bandwidth from this memory (bytes/s)
system.mem_ctrls0.bw_inst_read::total           78190                       # Instruction read bandwidth from this memory (bytes/s)
system.mem_ctrls0.bw_write::writebacks       64752075                       # Write bandwidth from this memory (bytes/s)
system.mem_ctrls0.bw_write::total            64752075                       # Write bandwidth from this memory (bytes/s)
system.mem_ctrls0.bw_total::writebacks       64752075                       # Total bandwidth to/from this memory (bytes/s)
system.mem_ctrls0.bw_total::cpu.inst               26                       # Total bandwidth to/from this memory (bytes/s)
system.mem_ctrls0.bw_total::cpu.data               52                       # Total bandwidth to/from this memory (bytes/s)
system.mem_ctrls0.bw_total::switch_cpus.inst        60563                       # Total bandwidth to/from this memory (bytes/s)
system.mem_ctrls0.bw_total::switch_cpus.data    164305026                       # Total bandwidth to/from this memory (bytes/s)
system.mem_ctrls0.bw_total::switch_cpus_1.inst        17602                       # Total bandwidth to/from this memory (bytes/s)
system.mem_ctrls0.bw_total::switch_cpus_1.data     34007583                       # Total bandwidth to/from this memory (bytes/s)
system.mem_ctrls0.bw_total::total           263142926                       # Total bandwidth to/from this memory (bytes/s)
system.mem_ctrls0.readReqs                    7698118                       # Number of read requests accepted
system.mem_ctrls0.writeReqs                   2512561                       # Number of write requests accepted
system.mem_ctrls0.readBursts                  7698118                       # Number of DRAM read bursts, including those serviced by the write queue
system.mem_ctrls0.writeBursts                 2512561                       # Number of DRAM write bursts, including those merged in the write queue
system.mem_ctrls0.bytesReadDRAM             492339904                       # Total number of bytes read from DRAM
system.mem_ctrls0.bytesReadWrQ                 339648                       # Total number of bytes read from write queue
system.mem_ctrls0.bytesWritten              160802048                       # Total number of bytes written to DRAM
system.mem_ctrls0.bytesReadSys              492679552                       # Total read bytes from the system interface side
system.mem_ctrls0.bytesWrittenSys           160803904                       # Total written bytes from the system interface side
system.mem_ctrls0.servicedByWrQ                  5307                       # Number of DRAM read bursts serviced by the write queue
system.mem_ctrls0.mergedWrBursts                    0                       # Number of DRAM write bursts merged with an existing one
system.mem_ctrls0.neitherReadNorWriteReqs            0                       # Number of requests that are neither read nor write
system.mem_ctrls0.perBankRdBursts::0           516092                       # Per bank write bursts
system.mem_ctrls0.perBankRdBursts::1           487470                       # Per bank write bursts
system.mem_ctrls0.perBankRdBursts::2           479247                       # Per bank write bursts
system.mem_ctrls0.perBankRdBursts::3           482612                       # Per bank write bursts
system.mem_ctrls0.perBankRdBursts::4           479654                       # Per bank write bursts
system.mem_ctrls0.perBankRdBursts::5           492162                       # Per bank write bursts
system.mem_ctrls0.perBankRdBursts::6           465988                       # Per bank write bursts
system.mem_ctrls0.perBankRdBursts::7           476362                       # Per bank write bursts
system.mem_ctrls0.perBankRdBursts::8           486365                       # Per bank write bursts
system.mem_ctrls0.perBankRdBursts::9           478604                       # Per bank write bursts
system.mem_ctrls0.perBankRdBursts::10          468749                       # Per bank write bursts
system.mem_ctrls0.perBankRdBursts::11          481026                       # Per bank write bursts
system.mem_ctrls0.perBankRdBursts::12          470426                       # Per bank write bursts
system.mem_ctrls0.perBankRdBursts::13          469134                       # Per bank write bursts
system.mem_ctrls0.perBankRdBursts::14          474713                       # Per bank write bursts
system.mem_ctrls0.perBankRdBursts::15          484207                       # Per bank write bursts
system.mem_ctrls0.perBankWrBursts::0           168724                       # Per bank write bursts
system.mem_ctrls0.perBankWrBursts::1           155098                       # Per bank write bursts
system.mem_ctrls0.perBankWrBursts::2           158429                       # Per bank write bursts
system.mem_ctrls0.perBankWrBursts::3           159849                       # Per bank write bursts
system.mem_ctrls0.perBankWrBursts::4           157386                       # Per bank write bursts
system.mem_ctrls0.perBankWrBursts::5           158860                       # Per bank write bursts
system.mem_ctrls0.perBankWrBursts::6           151164                       # Per bank write bursts
system.mem_ctrls0.perBankWrBursts::7           153798                       # Per bank write bursts
system.mem_ctrls0.perBankWrBursts::8           155106                       # Per bank write bursts
system.mem_ctrls0.perBankWrBursts::9           153204                       # Per bank write bursts
system.mem_ctrls0.perBankWrBursts::10          151836                       # Per bank write bursts
system.mem_ctrls0.perBankWrBursts::11          152200                       # Per bank write bursts
system.mem_ctrls0.perBankWrBursts::12          151404                       # Per bank write bursts
system.mem_ctrls0.perBankWrBursts::13          155122                       # Per bank write bursts
system.mem_ctrls0.perBankWrBursts::14          163153                       # Per bank write bursts
system.mem_ctrls0.perBankWrBursts::15          167199                       # Per bank write bursts
system.mem_ctrls0.numRdRetry                        0                       # Number of times read queue was full causing retry
system.mem_ctrls0.numWrRetry                        0                       # Number of times write queue was full causing retry
system.mem_ctrls0.totGap                 2483377889913                       # Total gap between requests
system.mem_ctrls0.readPktSize::0                    0                       # Read request sizes (log2)
system.mem_ctrls0.readPktSize::1                    0                       # Read request sizes (log2)
system.mem_ctrls0.readPktSize::2                    0                       # Read request sizes (log2)
system.mem_ctrls0.readPktSize::3                    0                       # Read request sizes (log2)
system.mem_ctrls0.readPktSize::4                    0                       # Read request sizes (log2)
system.mem_ctrls0.readPktSize::5                    0                       # Read request sizes (log2)
system.mem_ctrls0.readPktSize::6              7698118                       # Read request sizes (log2)
system.mem_ctrls0.writePktSize::0                   0                       # Write request sizes (log2)
system.mem_ctrls0.writePktSize::1                   0                       # Write request sizes (log2)
system.mem_ctrls0.writePktSize::2                   0                       # Write request sizes (log2)
system.mem_ctrls0.writePktSize::3                   0                       # Write request sizes (log2)
system.mem_ctrls0.writePktSize::4                   0                       # Write request sizes (log2)
system.mem_ctrls0.writePktSize::5                   0                       # Write request sizes (log2)
system.mem_ctrls0.writePktSize::6             2512561                       # Write request sizes (log2)
system.mem_ctrls0.rdQLenPdf::0                7294278                       # What read queue length does an incoming req see
system.mem_ctrls0.rdQLenPdf::1                 335122                       # What read queue length does an incoming req see
system.mem_ctrls0.rdQLenPdf::2                  57906                       # What read queue length does an incoming req see
system.mem_ctrls0.rdQLenPdf::3                   5505                       # What read queue length does an incoming req see
system.mem_ctrls0.rdQLenPdf::4                      0                       # What read queue length does an incoming req see
system.mem_ctrls0.rdQLenPdf::5                      0                       # What read queue length does an incoming req see
system.mem_ctrls0.rdQLenPdf::6                      0                       # What read queue length does an incoming req see
system.mem_ctrls0.rdQLenPdf::7                      0                       # What read queue length does an incoming req see
system.mem_ctrls0.rdQLenPdf::8                      0                       # What read queue length does an incoming req see
system.mem_ctrls0.rdQLenPdf::9                      0                       # What read queue length does an incoming req see
system.mem_ctrls0.rdQLenPdf::10                     0                       # What read queue length does an incoming req see
system.mem_ctrls0.rdQLenPdf::11                     0                       # What read queue length does an incoming req see
system.mem_ctrls0.rdQLenPdf::12                     0                       # What read queue length does an incoming req see
system.mem_ctrls0.rdQLenPdf::13                     0                       # What read queue length does an incoming req see
system.mem_ctrls0.rdQLenPdf::14                     0                       # What read queue length does an incoming req see
system.mem_ctrls0.rdQLenPdf::15                     0                       # What read queue length does an incoming req see
system.mem_ctrls0.rdQLenPdf::16                     0                       # What read queue length does an incoming req see
system.mem_ctrls0.rdQLenPdf::17                     0                       # What read queue length does an incoming req see
system.mem_ctrls0.rdQLenPdf::18                     0                       # What read queue length does an incoming req see
system.mem_ctrls0.rdQLenPdf::19                     0                       # What read queue length does an incoming req see
system.mem_ctrls0.rdQLenPdf::20                     0                       # What read queue length does an incoming req see
system.mem_ctrls0.rdQLenPdf::21                     0                       # What read queue length does an incoming req see
system.mem_ctrls0.rdQLenPdf::22                     0                       # What read queue length does an incoming req see
system.mem_ctrls0.rdQLenPdf::23                     0                       # What read queue length does an incoming req see
system.mem_ctrls0.rdQLenPdf::24                     0                       # What read queue length does an incoming req see
system.mem_ctrls0.rdQLenPdf::25                     0                       # What read queue length does an incoming req see
system.mem_ctrls0.rdQLenPdf::26                     0                       # What read queue length does an incoming req see
system.mem_ctrls0.rdQLenPdf::27                     0                       # What read queue length does an incoming req see
system.mem_ctrls0.rdQLenPdf::28                     0                       # What read queue length does an incoming req see
system.mem_ctrls0.rdQLenPdf::29                     0                       # What read queue length does an incoming req see
system.mem_ctrls0.rdQLenPdf::30                     0                       # What read queue length does an incoming req see
system.mem_ctrls0.rdQLenPdf::31                     0                       # What read queue length does an incoming req see
system.mem_ctrls0.wrQLenPdf::0                      2                       # What write queue length does an incoming req see
system.mem_ctrls0.wrQLenPdf::1                      2                       # What write queue length does an incoming req see
system.mem_ctrls0.wrQLenPdf::2                      2                       # What write queue length does an incoming req see
system.mem_ctrls0.wrQLenPdf::3                      2                       # What write queue length does an incoming req see
system.mem_ctrls0.wrQLenPdf::4                      2                       # What write queue length does an incoming req see
system.mem_ctrls0.wrQLenPdf::5                      2                       # What write queue length does an incoming req see
system.mem_ctrls0.wrQLenPdf::6                      2                       # What write queue length does an incoming req see
system.mem_ctrls0.wrQLenPdf::7                      2                       # What write queue length does an incoming req see
system.mem_ctrls0.wrQLenPdf::8                      2                       # What write queue length does an incoming req see
system.mem_ctrls0.wrQLenPdf::9                      2                       # What write queue length does an incoming req see
system.mem_ctrls0.wrQLenPdf::10                     2                       # What write queue length does an incoming req see
system.mem_ctrls0.wrQLenPdf::11                     2                       # What write queue length does an incoming req see
system.mem_ctrls0.wrQLenPdf::12                     2                       # What write queue length does an incoming req see
system.mem_ctrls0.wrQLenPdf::13                     2                       # What write queue length does an incoming req see
system.mem_ctrls0.wrQLenPdf::14                     2                       # What write queue length does an incoming req see
system.mem_ctrls0.wrQLenPdf::15                 78625                       # What write queue length does an incoming req see
system.mem_ctrls0.wrQLenPdf::16                 83059                       # What write queue length does an incoming req see
system.mem_ctrls0.wrQLenPdf::17                139798                       # What write queue length does an incoming req see
system.mem_ctrls0.wrQLenPdf::18                146284                       # What write queue length does an incoming req see
system.mem_ctrls0.wrQLenPdf::19                147361                       # What write queue length does an incoming req see
system.mem_ctrls0.wrQLenPdf::20                147462                       # What write queue length does an incoming req see
system.mem_ctrls0.wrQLenPdf::21                147377                       # What write queue length does an incoming req see
system.mem_ctrls0.wrQLenPdf::22                147278                       # What write queue length does an incoming req see
system.mem_ctrls0.wrQLenPdf::23                147240                       # What write queue length does an incoming req see
system.mem_ctrls0.wrQLenPdf::24                147211                       # What write queue length does an incoming req see
system.mem_ctrls0.wrQLenPdf::25                147218                       # What write queue length does an incoming req see
system.mem_ctrls0.wrQLenPdf::26                147226                       # What write queue length does an incoming req see
system.mem_ctrls0.wrQLenPdf::27                147695                       # What write queue length does an incoming req see
system.mem_ctrls0.wrQLenPdf::28                148236                       # What write queue length does an incoming req see
system.mem_ctrls0.wrQLenPdf::29                148961                       # What write queue length does an incoming req see
system.mem_ctrls0.wrQLenPdf::30                148252                       # What write queue length does an incoming req see
system.mem_ctrls0.wrQLenPdf::31                146529                       # What write queue length does an incoming req see
system.mem_ctrls0.wrQLenPdf::32                146393                       # What write queue length does an incoming req see
system.mem_ctrls0.wrQLenPdf::33                   201                       # What write queue length does an incoming req see
system.mem_ctrls0.wrQLenPdf::34                    73                       # What write queue length does an incoming req see
system.mem_ctrls0.wrQLenPdf::35                    25                       # What write queue length does an incoming req see
system.mem_ctrls0.wrQLenPdf::36                    13                       # What write queue length does an incoming req see
system.mem_ctrls0.wrQLenPdf::37                     9                       # What write queue length does an incoming req see
system.mem_ctrls0.wrQLenPdf::38                     5                       # What write queue length does an incoming req see
system.mem_ctrls0.wrQLenPdf::39                     0                       # What write queue length does an incoming req see
system.mem_ctrls0.wrQLenPdf::40                     0                       # What write queue length does an incoming req see
system.mem_ctrls0.wrQLenPdf::41                     0                       # What write queue length does an incoming req see
system.mem_ctrls0.wrQLenPdf::42                     0                       # What write queue length does an incoming req see
system.mem_ctrls0.wrQLenPdf::43                     0                       # What write queue length does an incoming req see
system.mem_ctrls0.wrQLenPdf::44                     0                       # What write queue length does an incoming req see
system.mem_ctrls0.wrQLenPdf::45                     0                       # What write queue length does an incoming req see
system.mem_ctrls0.wrQLenPdf::46                     0                       # What write queue length does an incoming req see
system.mem_ctrls0.wrQLenPdf::47                     0                       # What write queue length does an incoming req see
system.mem_ctrls0.wrQLenPdf::48                     0                       # What write queue length does an incoming req see
system.mem_ctrls0.wrQLenPdf::49                     0                       # What write queue length does an incoming req see
system.mem_ctrls0.wrQLenPdf::50                     0                       # What write queue length does an incoming req see
system.mem_ctrls0.wrQLenPdf::51                     0                       # What write queue length does an incoming req see
system.mem_ctrls0.wrQLenPdf::52                     0                       # What write queue length does an incoming req see
system.mem_ctrls0.wrQLenPdf::53                     0                       # What write queue length does an incoming req see
system.mem_ctrls0.wrQLenPdf::54                     0                       # What write queue length does an incoming req see
system.mem_ctrls0.wrQLenPdf::55                     0                       # What write queue length does an incoming req see
system.mem_ctrls0.wrQLenPdf::56                     0                       # What write queue length does an incoming req see
system.mem_ctrls0.wrQLenPdf::57                     0                       # What write queue length does an incoming req see
system.mem_ctrls0.wrQLenPdf::58                     0                       # What write queue length does an incoming req see
system.mem_ctrls0.wrQLenPdf::59                     0                       # What write queue length does an incoming req see
system.mem_ctrls0.wrQLenPdf::60                     0                       # What write queue length does an incoming req see
system.mem_ctrls0.wrQLenPdf::61                     0                       # What write queue length does an incoming req see
system.mem_ctrls0.wrQLenPdf::62                     0                       # What write queue length does an incoming req see
system.mem_ctrls0.wrQLenPdf::63                     0                       # What write queue length does an incoming req see
system.mem_ctrls0.bytesPerActivate::samples      4367329                       # Bytes accessed per row activation
system.mem_ctrls0.bytesPerActivate::mean   149.551692                       # Bytes accessed per row activation
system.mem_ctrls0.bytesPerActivate::gmean   101.704286                       # Bytes accessed per row activation
system.mem_ctrls0.bytesPerActivate::stdev   193.119069                       # Bytes accessed per row activation
system.mem_ctrls0.bytesPerActivate::0-127      2771392     63.46%     63.46% # Bytes accessed per row activation
system.mem_ctrls0.bytesPerActivate::128-255       973784     22.30%     85.75% # Bytes accessed per row activation
system.mem_ctrls0.bytesPerActivate::256-383       232881      5.33%     91.09% # Bytes accessed per row activation
system.mem_ctrls0.bytesPerActivate::384-511       111885      2.56%     93.65% # Bytes accessed per row activation
system.mem_ctrls0.bytesPerActivate::512-639        61831      1.42%     95.06% # Bytes accessed per row activation
system.mem_ctrls0.bytesPerActivate::640-767        46364      1.06%     96.13% # Bytes accessed per row activation
system.mem_ctrls0.bytesPerActivate::768-895        42408      0.97%     97.10% # Bytes accessed per row activation
system.mem_ctrls0.bytesPerActivate::896-1023        40933      0.94%     98.03% # Bytes accessed per row activation
system.mem_ctrls0.bytesPerActivate::1024-1151        85851      1.97%    100.00% # Bytes accessed per row activation
system.mem_ctrls0.bytesPerActivate::total      4367329                       # Bytes accessed per row activation
system.mem_ctrls0.rdPerTurnAround::samples       146311                       # Reads before turning the bus around for writes
system.mem_ctrls0.rdPerTurnAround::mean     52.568911                       # Reads before turning the bus around for writes
system.mem_ctrls0.rdPerTurnAround::stdev   133.553668                       # Reads before turning the bus around for writes
system.mem_ctrls0.rdPerTurnAround::0-1023       146000     99.79%     99.79% # Reads before turning the bus around for writes
system.mem_ctrls0.rdPerTurnAround::1024-2047          264      0.18%     99.97% # Reads before turning the bus around for writes
system.mem_ctrls0.rdPerTurnAround::2048-3071           37      0.03%     99.99% # Reads before turning the bus around for writes
system.mem_ctrls0.rdPerTurnAround::3072-4095            6      0.00%    100.00% # Reads before turning the bus around for writes
system.mem_ctrls0.rdPerTurnAround::4096-5119            2      0.00%    100.00% # Reads before turning the bus around for writes
system.mem_ctrls0.rdPerTurnAround::5120-6143            1      0.00%    100.00% # Reads before turning the bus around for writes
system.mem_ctrls0.rdPerTurnAround::31744-32767            1      0.00%    100.00% # Reads before turning the bus around for writes
system.mem_ctrls0.rdPerTurnAround::total       146311                       # Reads before turning the bus around for writes
system.mem_ctrls0.wrPerTurnAround::samples       146311                       # Writes before turning the bus around for reads
system.mem_ctrls0.wrPerTurnAround::mean     17.172543                       # Writes before turning the bus around for reads
system.mem_ctrls0.wrPerTurnAround::gmean    17.138240                       # Writes before turning the bus around for reads
system.mem_ctrls0.wrPerTurnAround::stdev     1.086798                       # Writes before turning the bus around for reads
system.mem_ctrls0.wrPerTurnAround::16           64049     43.78%     43.78% # Writes before turning the bus around for reads
system.mem_ctrls0.wrPerTurnAround::17            3042      2.08%     45.86% # Writes before turning the bus around for reads
system.mem_ctrls0.wrPerTurnAround::18           70473     48.17%     94.02% # Writes before turning the bus around for reads
system.mem_ctrls0.wrPerTurnAround::19            7711      5.27%     99.29% # Writes before turning the bus around for reads
system.mem_ctrls0.wrPerTurnAround::20             845      0.58%     99.87% # Writes before turning the bus around for reads
system.mem_ctrls0.wrPerTurnAround::21             140      0.10%     99.97% # Writes before turning the bus around for reads
system.mem_ctrls0.wrPerTurnAround::22              31      0.02%     99.99% # Writes before turning the bus around for reads
system.mem_ctrls0.wrPerTurnAround::23               9      0.01%     99.99% # Writes before turning the bus around for reads
system.mem_ctrls0.wrPerTurnAround::24               4      0.00%    100.00% # Writes before turning the bus around for reads
system.mem_ctrls0.wrPerTurnAround::25               3      0.00%    100.00% # Writes before turning the bus around for reads
system.mem_ctrls0.wrPerTurnAround::26               1      0.00%    100.00% # Writes before turning the bus around for reads
system.mem_ctrls0.wrPerTurnAround::27               1      0.00%    100.00% # Writes before turning the bus around for reads
system.mem_ctrls0.wrPerTurnAround::29               2      0.00%    100.00% # Writes before turning the bus around for reads
system.mem_ctrls0.wrPerTurnAround::total       146311                       # Writes before turning the bus around for reads
system.mem_ctrls0.totQLat                144348707914                       # Total ticks spent queuing
system.mem_ctrls0.totMemAccLat           288588914164                       # Total ticks spent from burst creation until serviced by the DRAM
system.mem_ctrls0.totBusLat               38464055000                       # Total ticks spent in databus transfers
system.mem_ctrls0.avgQLat                    18764.10                       # Average queueing delay per DRAM burst
system.mem_ctrls0.avgBusLat                   5000.00                       # Average bus latency per DRAM burst
system.mem_ctrls0.avgMemAccLat               37514.10                       # Average memory access latency per DRAM burst
system.mem_ctrls0.avgRdBW                      198.25                       # Average DRAM read bandwidth in MiByte/s
system.mem_ctrls0.avgWrBW                       64.75                       # Average achieved write bandwidth in MiByte/s
system.mem_ctrls0.avgRdBWSys                   198.39                       # Average system read bandwidth in MiByte/s
system.mem_ctrls0.avgWrBWSys                    64.75                       # Average system write bandwidth in MiByte/s
system.mem_ctrls0.peakBW                     12800.00                       # Theoretical peak bandwidth in MiByte/s
system.mem_ctrls0.busUtil                        2.05                       # Data bus utilization in percentage
system.mem_ctrls0.busUtilRead                    1.55                       # Data bus utilization in percentage for reads
system.mem_ctrls0.busUtilWrite                   0.51                       # Data bus utilization in percentage for writes
system.mem_ctrls0.avgRdQLen                      1.03                       # Average read queue length when enqueuing
system.mem_ctrls0.avgWrQLen                     24.79                       # Average write queue length when enqueuing
system.mem_ctrls0.readRowHits                 5162365                       # Number of row buffer hits during reads
system.mem_ctrls0.writeRowHits                 675641                       # Number of row buffer hits during writes
system.mem_ctrls0.readRowHitRate                67.11                       # Row buffer hit rate for reads
system.mem_ctrls0.writeRowHitRate               26.89                       # Row buffer hit rate for writes
system.mem_ctrls0.avgGap                    243213.79                       # Average gap between requests
system.mem_ctrls0.pageHitRate                   57.21                       # Row buffer hit rate, read and write combined
system.mem_ctrls0_0.actEnergy             15654100140                       # Energy for activate commands per rank (pJ)
system.mem_ctrls0_0.preEnergy              8320336365                       # Energy for precharge commands per rank (pJ)
system.mem_ctrls0_0.readEnergy            27700251180                       # Energy for read commands per rank (pJ)
system.mem_ctrls0_0.writeEnergy            6594467760                       # Energy for write commands per rank (pJ)
system.mem_ctrls0_0.refreshEnergy        190690216080.000031                       # Energy for refresh commands per rank (pJ)
system.mem_ctrls0_0.actBackEnergy        142416817050                       # Energy for active background per rank (pJ)
system.mem_ctrls0_0.preBackEnergy          5373950400                       # Energy for precharge background per rank (pJ)
system.mem_ctrls0_0.actPowerDownEnergy   796094271120                       # Energy for active power-down per rank (pJ)
system.mem_ctrls0_0.prePowerDownEnergy   101649364800                       # Energy for precharge power-down per rank (pJ)
system.mem_ctrls0_0.selfRefreshEnergy     41185633050                       # Energy for self refresh per rank (pJ)
system.mem_ctrls0_0.totalEnergy          1335738966825                       # Total energy per rank (pJ)
system.mem_ctrls0_0.averagePower           537.871694                       # Core power per rank (mW)
system.mem_ctrls0_0.totalIdleTime        2156940938940                       # Total Idle time Per DRAM Rank
system.mem_ctrls0_0.memoryStateTime::IDLE   4759520977                       # Time in different power states
system.mem_ctrls0_0.memoryStateTime::REF  80737762000                       # Time in different power states
system.mem_ctrls0_0.memoryStateTime::SREF 146401170222                       # Time in different power states
system.mem_ctrls0_0.memoryStateTime::PRE_PDN 264713472047                       # Time in different power states
system.mem_ctrls0_0.memoryStateTime::ACT 240939814388                       # Time in different power states
system.mem_ctrls0_0.memoryStateTime::ACT_PDN 1745826653442                       # Time in different power states
system.mem_ctrls0_1.actEnergy             15528686040                       # Energy for activate commands per rank (pJ)
system.mem_ctrls0_1.preEnergy              8253677190                       # Energy for precharge commands per rank (pJ)
system.mem_ctrls0_1.readEnergy            27226419360                       # Energy for read commands per rank (pJ)
system.mem_ctrls0_1.writeEnergy            6520949280                       # Energy for write commands per rank (pJ)
system.mem_ctrls0_1.refreshEnergy        191046707280.000031                       # Energy for refresh commands per rank (pJ)
system.mem_ctrls0_1.actBackEnergy        144396139770                       # Energy for active background per rank (pJ)
system.mem_ctrls0_1.preBackEnergy          5494332480                       # Energy for precharge background per rank (pJ)
system.mem_ctrls0_1.actPowerDownEnergy   789232543290                       # Energy for active power-down per rank (pJ)
system.mem_ctrls0_1.prePowerDownEnergy   103128681120                       # Energy for precharge power-down per rank (pJ)
system.mem_ctrls0_1.selfRefreshEnergy     43598608965                       # Energy for self refresh per rank (pJ)
system.mem_ctrls0_1.totalEnergy          1334490505635                       # Total energy per rank (pJ)
system.mem_ctrls0_1.averagePower           537.368969                       # Core power per rank (mW)
system.mem_ctrls0_1.totalIdleTime        2152272926086                       # Total Idle time Per DRAM Rank
system.mem_ctrls0_1.memoryStateTime::IDLE   5165838442                       # Time in different power states
system.mem_ctrls0_1.memoryStateTime::REF  80896938000                       # Time in different power states
system.mem_ctrls0_1.memoryStateTime::SREF 152932910764                       # Time in different power states
system.mem_ctrls0_1.memoryStateTime::PRE_PDN 268565449106                       # Time in different power states
system.mem_ctrls0_1.memoryStateTime::ACT 245042009865                       # Time in different power states
system.mem_ctrls0_1.memoryStateTime::ACT_PDN 1730775246899                       # Time in different power states
system.mem_ctrls1.pwrStateResidencyTicks::UNDEFINED 72513350974422                       # Cumulative time (in ticks) in various power states
system.mem_ctrls1.bytes_read::cpu.inst             64                       # Number of bytes read from this memory
system.mem_ctrls1.bytes_read::switch_cpus.inst       138624                       # Number of bytes read from this memory
system.mem_ctrls1.bytes_read::switch_cpus.data    408320832                       # Number of bytes read from this memory
system.mem_ctrls1.bytes_read::switch_cpus_1.inst        44352                       # Number of bytes read from this memory
system.mem_ctrls1.bytes_read::switch_cpus_1.data     84513088                       # Number of bytes read from this memory
system.mem_ctrls1.bytes_read::total         493016960                       # Number of bytes read from this memory
system.mem_ctrls1.bytes_inst_read::cpu.inst           64                       # Number of instructions bytes read from this memory
system.mem_ctrls1.bytes_inst_read::switch_cpus.inst       138624                       # Number of instructions bytes read from this memory
system.mem_ctrls1.bytes_inst_read::switch_cpus_1.inst        44352                       # Number of instructions bytes read from this memory
system.mem_ctrls1.bytes_inst_read::total       183040                       # Number of instructions bytes read from this memory
system.mem_ctrls1.bytes_written::writebacks    160873600                       # Number of bytes written to this memory
system.mem_ctrls1.bytes_written::total      160873600                       # Number of bytes written to this memory
system.mem_ctrls1.num_reads::cpu.inst               1                       # Number of read requests responded to by this memory
system.mem_ctrls1.num_reads::switch_cpus.inst         2166                       # Number of read requests responded to by this memory
system.mem_ctrls1.num_reads::switch_cpus.data      6380013                       # Number of read requests responded to by this memory
system.mem_ctrls1.num_reads::switch_cpus_1.inst          693                       # Number of read requests responded to by this memory
system.mem_ctrls1.num_reads::switch_cpus_1.data      1320517                       # Number of read requests responded to by this memory
system.mem_ctrls1.num_reads::total            7703390                       # Number of read requests responded to by this memory
system.mem_ctrls1.num_writes::writebacks      2513650                       # Number of write requests responded to by this memory
system.mem_ctrls1.num_writes::total           2513650                       # Number of write requests responded to by this memory
system.mem_ctrls1.bw_read::cpu.inst                26                       # Total read bandwidth from this memory (bytes/s)
system.mem_ctrls1.bw_read::switch_cpus.inst        55821                       # Total read bandwidth from this memory (bytes/s)
system.mem_ctrls1.bw_read::switch_cpus.data    164421513                       # Total read bandwidth from this memory (bytes/s)
system.mem_ctrls1.bw_read::switch_cpus_1.inst        17860                       # Total read bandwidth from this memory (bytes/s)
system.mem_ctrls1.bw_read::switch_cpus_1.data     34031498                       # Total read bandwidth from this memory (bytes/s)
system.mem_ctrls1.bw_read::total            198526717                       # Total read bandwidth from this memory (bytes/s)
system.mem_ctrls1.bw_inst_read::cpu.inst           26                       # Instruction read bandwidth from this memory (bytes/s)
system.mem_ctrls1.bw_inst_read::switch_cpus.inst        55821                       # Instruction read bandwidth from this memory (bytes/s)
system.mem_ctrls1.bw_inst_read::switch_cpus_1.inst        17860                       # Instruction read bandwidth from this memory (bytes/s)
system.mem_ctrls1.bw_inst_read::total           73706                       # Instruction read bandwidth from this memory (bytes/s)
system.mem_ctrls1.bw_write::writebacks       64780140                       # Write bandwidth from this memory (bytes/s)
system.mem_ctrls1.bw_write::total            64780140                       # Write bandwidth from this memory (bytes/s)
system.mem_ctrls1.bw_total::writebacks       64780140                       # Total bandwidth to/from this memory (bytes/s)
system.mem_ctrls1.bw_total::cpu.inst               26                       # Total bandwidth to/from this memory (bytes/s)
system.mem_ctrls1.bw_total::switch_cpus.inst        55821                       # Total bandwidth to/from this memory (bytes/s)
system.mem_ctrls1.bw_total::switch_cpus.data    164421513                       # Total bandwidth to/from this memory (bytes/s)
system.mem_ctrls1.bw_total::switch_cpus_1.inst        17860                       # Total bandwidth to/from this memory (bytes/s)
system.mem_ctrls1.bw_total::switch_cpus_1.data     34031498                       # Total bandwidth to/from this memory (bytes/s)
system.mem_ctrls1.bw_total::total           263306857                       # Total bandwidth to/from this memory (bytes/s)
system.mem_ctrls1.readReqs                    7703390                       # Number of read requests accepted
system.mem_ctrls1.writeReqs                   2513650                       # Number of write requests accepted
system.mem_ctrls1.readBursts                  7703390                       # Number of DRAM read bursts, including those serviced by the write queue
system.mem_ctrls1.writeBursts                 2513650                       # Number of DRAM write bursts, including those merged in the write queue
system.mem_ctrls1.bytesReadDRAM             492689344                       # Total number of bytes read from DRAM
system.mem_ctrls1.bytesReadWrQ                 327616                       # Total number of bytes read from write queue
system.mem_ctrls1.bytesWritten              160871808                       # Total number of bytes written to DRAM
system.mem_ctrls1.bytesReadSys              493016960                       # Total read bytes from the system interface side
system.mem_ctrls1.bytesWrittenSys           160873600                       # Total written bytes from the system interface side
system.mem_ctrls1.servicedByWrQ                  5119                       # Number of DRAM read bursts serviced by the write queue
system.mem_ctrls1.mergedWrBursts                    0                       # Number of DRAM write bursts merged with an existing one
system.mem_ctrls1.neitherReadNorWriteReqs            0                       # Number of requests that are neither read nor write
system.mem_ctrls1.perBankRdBursts::0           515283                       # Per bank write bursts
system.mem_ctrls1.perBankRdBursts::1           486289                       # Per bank write bursts
system.mem_ctrls1.perBankRdBursts::2           479893                       # Per bank write bursts
system.mem_ctrls1.perBankRdBursts::3           485387                       # Per bank write bursts
system.mem_ctrls1.perBankRdBursts::4           481642                       # Per bank write bursts
system.mem_ctrls1.perBankRdBursts::5           492267                       # Per bank write bursts
system.mem_ctrls1.perBankRdBursts::6           469152                       # Per bank write bursts
system.mem_ctrls1.perBankRdBursts::7           472703                       # Per bank write bursts
system.mem_ctrls1.perBankRdBursts::8           488641                       # Per bank write bursts
system.mem_ctrls1.perBankRdBursts::9           473617                       # Per bank write bursts
system.mem_ctrls1.perBankRdBursts::10          474013                       # Per bank write bursts
system.mem_ctrls1.perBankRdBursts::11          480541                       # Per bank write bursts
system.mem_ctrls1.perBankRdBursts::12          471692                       # Per bank write bursts
system.mem_ctrls1.perBankRdBursts::13          474037                       # Per bank write bursts
system.mem_ctrls1.perBankRdBursts::14          471549                       # Per bank write bursts
system.mem_ctrls1.perBankRdBursts::15          481565                       # Per bank write bursts
system.mem_ctrls1.perBankWrBursts::0           168621                       # Per bank write bursts
system.mem_ctrls1.perBankWrBursts::1           155275                       # Per bank write bursts
system.mem_ctrls1.perBankWrBursts::2           158451                       # Per bank write bursts
system.mem_ctrls1.perBankWrBursts::3           160376                       # Per bank write bursts
system.mem_ctrls1.perBankWrBursts::4           157996                       # Per bank write bursts
system.mem_ctrls1.perBankWrBursts::5           158407                       # Per bank write bursts
system.mem_ctrls1.perBankWrBursts::6           152119                       # Per bank write bursts
system.mem_ctrls1.perBankWrBursts::7           153541                       # Per bank write bursts
system.mem_ctrls1.perBankWrBursts::8           155198                       # Per bank write bursts
system.mem_ctrls1.perBankWrBursts::9           152457                       # Per bank write bursts
system.mem_ctrls1.perBankWrBursts::10          151854                       # Per bank write bursts
system.mem_ctrls1.perBankWrBursts::11          152435                       # Per bank write bursts
system.mem_ctrls1.perBankWrBursts::12          151512                       # Per bank write bursts
system.mem_ctrls1.perBankWrBursts::13          155028                       # Per bank write bursts
system.mem_ctrls1.perBankWrBursts::14          163710                       # Per bank write bursts
system.mem_ctrls1.perBankWrBursts::15          166642                       # Per bank write bursts
system.mem_ctrls1.numRdRetry                        0                       # Number of times read queue was full causing retry
system.mem_ctrls1.numWrRetry                        0                       # Number of times write queue was full causing retry
system.mem_ctrls1.totGap                 2483378299170                       # Total gap between requests
system.mem_ctrls1.readPktSize::0                    0                       # Read request sizes (log2)
system.mem_ctrls1.readPktSize::1                    0                       # Read request sizes (log2)
system.mem_ctrls1.readPktSize::2                    0                       # Read request sizes (log2)
system.mem_ctrls1.readPktSize::3                    0                       # Read request sizes (log2)
system.mem_ctrls1.readPktSize::4                    0                       # Read request sizes (log2)
system.mem_ctrls1.readPktSize::5                    0                       # Read request sizes (log2)
system.mem_ctrls1.readPktSize::6              7703390                       # Read request sizes (log2)
system.mem_ctrls1.writePktSize::0                   0                       # Write request sizes (log2)
system.mem_ctrls1.writePktSize::1                   0                       # Write request sizes (log2)
system.mem_ctrls1.writePktSize::2                   0                       # Write request sizes (log2)
system.mem_ctrls1.writePktSize::3                   0                       # Write request sizes (log2)
system.mem_ctrls1.writePktSize::4                   0                       # Write request sizes (log2)
system.mem_ctrls1.writePktSize::5                   0                       # Write request sizes (log2)
system.mem_ctrls1.writePktSize::6             2513650                       # Write request sizes (log2)
system.mem_ctrls1.rdQLenPdf::0                7300411                       # What read queue length does an incoming req see
system.mem_ctrls1.rdQLenPdf::1                 335241                       # What read queue length does an incoming req see
system.mem_ctrls1.rdQLenPdf::2                  57154                       # What read queue length does an incoming req see
system.mem_ctrls1.rdQLenPdf::3                   5463                       # What read queue length does an incoming req see
system.mem_ctrls1.rdQLenPdf::4                      2                       # What read queue length does an incoming req see
system.mem_ctrls1.rdQLenPdf::5                      0                       # What read queue length does an incoming req see
system.mem_ctrls1.rdQLenPdf::6                      0                       # What read queue length does an incoming req see
system.mem_ctrls1.rdQLenPdf::7                      0                       # What read queue length does an incoming req see
system.mem_ctrls1.rdQLenPdf::8                      0                       # What read queue length does an incoming req see
system.mem_ctrls1.rdQLenPdf::9                      0                       # What read queue length does an incoming req see
system.mem_ctrls1.rdQLenPdf::10                     0                       # What read queue length does an incoming req see
system.mem_ctrls1.rdQLenPdf::11                     0                       # What read queue length does an incoming req see
system.mem_ctrls1.rdQLenPdf::12                     0                       # What read queue length does an incoming req see
system.mem_ctrls1.rdQLenPdf::13                     0                       # What read queue length does an incoming req see
system.mem_ctrls1.rdQLenPdf::14                     0                       # What read queue length does an incoming req see
system.mem_ctrls1.rdQLenPdf::15                     0                       # What read queue length does an incoming req see
system.mem_ctrls1.rdQLenPdf::16                     0                       # What read queue length does an incoming req see
system.mem_ctrls1.rdQLenPdf::17                     0                       # What read queue length does an incoming req see
system.mem_ctrls1.rdQLenPdf::18                     0                       # What read queue length does an incoming req see
system.mem_ctrls1.rdQLenPdf::19                     0                       # What read queue length does an incoming req see
system.mem_ctrls1.rdQLenPdf::20                     0                       # What read queue length does an incoming req see
system.mem_ctrls1.rdQLenPdf::21                     0                       # What read queue length does an incoming req see
system.mem_ctrls1.rdQLenPdf::22                     0                       # What read queue length does an incoming req see
system.mem_ctrls1.rdQLenPdf::23                     0                       # What read queue length does an incoming req see
system.mem_ctrls1.rdQLenPdf::24                     0                       # What read queue length does an incoming req see
system.mem_ctrls1.rdQLenPdf::25                     0                       # What read queue length does an incoming req see
system.mem_ctrls1.rdQLenPdf::26                     0                       # What read queue length does an incoming req see
system.mem_ctrls1.rdQLenPdf::27                     0                       # What read queue length does an incoming req see
system.mem_ctrls1.rdQLenPdf::28                     0                       # What read queue length does an incoming req see
system.mem_ctrls1.rdQLenPdf::29                     0                       # What read queue length does an incoming req see
system.mem_ctrls1.rdQLenPdf::30                     0                       # What read queue length does an incoming req see
system.mem_ctrls1.rdQLenPdf::31                     0                       # What read queue length does an incoming req see
system.mem_ctrls1.wrQLenPdf::0                      2                       # What write queue length does an incoming req see
system.mem_ctrls1.wrQLenPdf::1                      2                       # What write queue length does an incoming req see
system.mem_ctrls1.wrQLenPdf::2                      2                       # What write queue length does an incoming req see
system.mem_ctrls1.wrQLenPdf::3                      2                       # What write queue length does an incoming req see
system.mem_ctrls1.wrQLenPdf::4                      2                       # What write queue length does an incoming req see
system.mem_ctrls1.wrQLenPdf::5                      2                       # What write queue length does an incoming req see
system.mem_ctrls1.wrQLenPdf::6                      2                       # What write queue length does an incoming req see
system.mem_ctrls1.wrQLenPdf::7                      2                       # What write queue length does an incoming req see
system.mem_ctrls1.wrQLenPdf::8                      2                       # What write queue length does an incoming req see
system.mem_ctrls1.wrQLenPdf::9                      2                       # What write queue length does an incoming req see
system.mem_ctrls1.wrQLenPdf::10                     2                       # What write queue length does an incoming req see
system.mem_ctrls1.wrQLenPdf::11                     2                       # What write queue length does an incoming req see
system.mem_ctrls1.wrQLenPdf::12                     2                       # What write queue length does an incoming req see
system.mem_ctrls1.wrQLenPdf::13                     2                       # What write queue length does an incoming req see
system.mem_ctrls1.wrQLenPdf::14                     2                       # What write queue length does an incoming req see
system.mem_ctrls1.wrQLenPdf::15                 78080                       # What write queue length does an incoming req see
system.mem_ctrls1.wrQLenPdf::16                 82428                       # What write queue length does an incoming req see
system.mem_ctrls1.wrQLenPdf::17                139861                       # What write queue length does an incoming req see
system.mem_ctrls1.wrQLenPdf::18                146301                       # What write queue length does an incoming req see
system.mem_ctrls1.wrQLenPdf::19                147369                       # What write queue length does an incoming req see
system.mem_ctrls1.wrQLenPdf::20                147509                       # What write queue length does an incoming req see
system.mem_ctrls1.wrQLenPdf::21                147563                       # What write queue length does an incoming req see
system.mem_ctrls1.wrQLenPdf::22                147498                       # What write queue length does an incoming req see
system.mem_ctrls1.wrQLenPdf::23                147375                       # What write queue length does an incoming req see
system.mem_ctrls1.wrQLenPdf::24                147414                       # What write queue length does an incoming req see
system.mem_ctrls1.wrQLenPdf::25                147397                       # What write queue length does an incoming req see
system.mem_ctrls1.wrQLenPdf::26                147419                       # What write queue length does an incoming req see
system.mem_ctrls1.wrQLenPdf::27                147865                       # What write queue length does an incoming req see
system.mem_ctrls1.wrQLenPdf::28                148426                       # What write queue length does an incoming req see
system.mem_ctrls1.wrQLenPdf::29                149130                       # What write queue length does an incoming req see
system.mem_ctrls1.wrQLenPdf::30                148446                       # What write queue length does an incoming req see
system.mem_ctrls1.wrQLenPdf::31                146685                       # What write queue length does an incoming req see
system.mem_ctrls1.wrQLenPdf::32                146544                       # What write queue length does an incoming req see
system.mem_ctrls1.wrQLenPdf::33                   189                       # What write queue length does an incoming req see
system.mem_ctrls1.wrQLenPdf::34                    71                       # What write queue length does an incoming req see
system.mem_ctrls1.wrQLenPdf::35                    34                       # What write queue length does an incoming req see
system.mem_ctrls1.wrQLenPdf::36                     8                       # What write queue length does an incoming req see
system.mem_ctrls1.wrQLenPdf::37                     4                       # What write queue length does an incoming req see
system.mem_ctrls1.wrQLenPdf::38                     3                       # What write queue length does an incoming req see
system.mem_ctrls1.wrQLenPdf::39                     1                       # What write queue length does an incoming req see
system.mem_ctrls1.wrQLenPdf::40                     0                       # What write queue length does an incoming req see
system.mem_ctrls1.wrQLenPdf::41                     0                       # What write queue length does an incoming req see
system.mem_ctrls1.wrQLenPdf::42                     0                       # What write queue length does an incoming req see
system.mem_ctrls1.wrQLenPdf::43                     0                       # What write queue length does an incoming req see
system.mem_ctrls1.wrQLenPdf::44                     0                       # What write queue length does an incoming req see
system.mem_ctrls1.wrQLenPdf::45                     0                       # What write queue length does an incoming req see
system.mem_ctrls1.wrQLenPdf::46                     0                       # What write queue length does an incoming req see
system.mem_ctrls1.wrQLenPdf::47                     0                       # What write queue length does an incoming req see
system.mem_ctrls1.wrQLenPdf::48                     0                       # What write queue length does an incoming req see
system.mem_ctrls1.wrQLenPdf::49                     0                       # What write queue length does an incoming req see
system.mem_ctrls1.wrQLenPdf::50                     0                       # What write queue length does an incoming req see
system.mem_ctrls1.wrQLenPdf::51                     0                       # What write queue length does an incoming req see
system.mem_ctrls1.wrQLenPdf::52                     0                       # What write queue length does an incoming req see
system.mem_ctrls1.wrQLenPdf::53                     0                       # What write queue length does an incoming req see
system.mem_ctrls1.wrQLenPdf::54                     0                       # What write queue length does an incoming req see
system.mem_ctrls1.wrQLenPdf::55                     0                       # What write queue length does an incoming req see
system.mem_ctrls1.wrQLenPdf::56                     0                       # What write queue length does an incoming req see
system.mem_ctrls1.wrQLenPdf::57                     0                       # What write queue length does an incoming req see
system.mem_ctrls1.wrQLenPdf::58                     0                       # What write queue length does an incoming req see
system.mem_ctrls1.wrQLenPdf::59                     0                       # What write queue length does an incoming req see
system.mem_ctrls1.wrQLenPdf::60                     0                       # What write queue length does an incoming req see
system.mem_ctrls1.wrQLenPdf::61                     0                       # What write queue length does an incoming req see
system.mem_ctrls1.wrQLenPdf::62                     0                       # What write queue length does an incoming req see
system.mem_ctrls1.wrQLenPdf::63                     0                       # What write queue length does an incoming req see
system.mem_ctrls1.bytesPerActivate::samples      4373174                       # Bytes accessed per row activation
system.mem_ctrls1.bytesPerActivate::mean   149.447606                       # Bytes accessed per row activation
system.mem_ctrls1.bytesPerActivate::gmean   101.701282                       # Bytes accessed per row activation
system.mem_ctrls1.bytesPerActivate::stdev   192.839023                       # Bytes accessed per row activation
system.mem_ctrls1.bytesPerActivate::0-127      2773837     63.43%     63.43% # Bytes accessed per row activation
system.mem_ctrls1.bytesPerActivate::128-255       976358     22.33%     85.75% # Bytes accessed per row activation
system.mem_ctrls1.bytesPerActivate::256-383       233249      5.33%     91.09% # Bytes accessed per row activation
system.mem_ctrls1.bytesPerActivate::384-511       113219      2.59%     93.68% # Bytes accessed per row activation
system.mem_ctrls1.bytesPerActivate::512-639        61928      1.42%     95.09% # Bytes accessed per row activation
system.mem_ctrls1.bytesPerActivate::640-767        45768      1.05%     96.14% # Bytes accessed per row activation
system.mem_ctrls1.bytesPerActivate::768-895        42371      0.97%     97.11% # Bytes accessed per row activation
system.mem_ctrls1.bytesPerActivate::896-1023        40566      0.93%     98.04% # Bytes accessed per row activation
system.mem_ctrls1.bytesPerActivate::1024-1151        85878      1.96%    100.00% # Bytes accessed per row activation
system.mem_ctrls1.bytesPerActivate::total      4373174                       # Bytes accessed per row activation
system.mem_ctrls1.rdPerTurnAround::samples       146466                       # Reads before turning the bus around for writes
system.mem_ctrls1.rdPerTurnAround::mean     52.553931                       # Reads before turning the bus around for writes
system.mem_ctrls1.rdPerTurnAround::stdev   132.913257                       # Reads before turning the bus around for writes
system.mem_ctrls1.rdPerTurnAround::0-1023       146146     99.78%     99.78% # Reads before turning the bus around for writes
system.mem_ctrls1.rdPerTurnAround::1024-2047          275      0.19%     99.97% # Reads before turning the bus around for writes
system.mem_ctrls1.rdPerTurnAround::2048-3071           30      0.02%     99.99% # Reads before turning the bus around for writes
system.mem_ctrls1.rdPerTurnAround::3072-4095            9      0.01%    100.00% # Reads before turning the bus around for writes
system.mem_ctrls1.rdPerTurnAround::4096-5119            3      0.00%    100.00% # Reads before turning the bus around for writes
system.mem_ctrls1.rdPerTurnAround::5120-6143            2      0.00%    100.00% # Reads before turning the bus around for writes
system.mem_ctrls1.rdPerTurnAround::31744-32767            1      0.00%    100.00% # Reads before turning the bus around for writes
system.mem_ctrls1.rdPerTurnAround::total       146466                       # Reads before turning the bus around for writes
system.mem_ctrls1.wrPerTurnAround::samples       146466                       # Writes before turning the bus around for reads
system.mem_ctrls1.wrPerTurnAround::mean     17.161812                       # Writes before turning the bus around for reads
system.mem_ctrls1.wrPerTurnAround::gmean    17.127577                       # Writes before turning the bus around for reads
system.mem_ctrls1.wrPerTurnAround::stdev     1.085908                       # Writes before turning the bus around for reads
system.mem_ctrls1.wrPerTurnAround::16           64715     44.18%     44.18% # Writes before turning the bus around for reads
system.mem_ctrls1.wrPerTurnAround::17            3140      2.14%     46.33% # Writes before turning the bus around for reads
system.mem_ctrls1.wrPerTurnAround::18           70101     47.86%     94.19% # Writes before turning the bus around for reads
system.mem_ctrls1.wrPerTurnAround::19            7543      5.15%     99.34% # Writes before turning the bus around for reads
system.mem_ctrls1.wrPerTurnAround::20             762      0.52%     99.86% # Writes before turning the bus around for reads
system.mem_ctrls1.wrPerTurnAround::21             142      0.10%     99.96% # Writes before turning the bus around for reads
system.mem_ctrls1.wrPerTurnAround::22              39      0.03%     99.98% # Writes before turning the bus around for reads
system.mem_ctrls1.wrPerTurnAround::23              12      0.01%     99.99% # Writes before turning the bus around for reads
system.mem_ctrls1.wrPerTurnAround::24               5      0.00%    100.00% # Writes before turning the bus around for reads
system.mem_ctrls1.wrPerTurnAround::25               2      0.00%    100.00% # Writes before turning the bus around for reads
system.mem_ctrls1.wrPerTurnAround::26               1      0.00%    100.00% # Writes before turning the bus around for reads
system.mem_ctrls1.wrPerTurnAround::27               1      0.00%    100.00% # Writes before turning the bus around for reads
system.mem_ctrls1.wrPerTurnAround::28               2      0.00%    100.00% # Writes before turning the bus around for reads
system.mem_ctrls1.wrPerTurnAround::32               1      0.00%    100.00% # Writes before turning the bus around for reads
system.mem_ctrls1.wrPerTurnAround::total       146466                       # Writes before turning the bus around for reads
system.mem_ctrls1.totQLat                144604493267                       # Total ticks spent queuing
system.mem_ctrls1.totMemAccLat           288947074517                       # Total ticks spent from burst creation until serviced by the DRAM
system.mem_ctrls1.totBusLat               38491355000                       # Total ticks spent in databus transfers
system.mem_ctrls1.avgQLat                    18784.02                       # Average queueing delay per DRAM burst
system.mem_ctrls1.avgBusLat                   5000.00                       # Average bus latency per DRAM burst
system.mem_ctrls1.avgMemAccLat               37534.02                       # Average memory access latency per DRAM burst
system.mem_ctrls1.avgRdBW                      198.39                       # Average DRAM read bandwidth in MiByte/s
system.mem_ctrls1.avgWrBW                       64.78                       # Average achieved write bandwidth in MiByte/s
system.mem_ctrls1.avgRdBWSys                   198.53                       # Average system read bandwidth in MiByte/s
system.mem_ctrls1.avgWrBWSys                    64.78                       # Average system write bandwidth in MiByte/s
system.mem_ctrls1.peakBW                     12800.00                       # Theoretical peak bandwidth in MiByte/s
system.mem_ctrls1.busUtil                        2.06                       # Data bus utilization in percentage
system.mem_ctrls1.busUtilRead                    1.55                       # Data bus utilization in percentage for reads
system.mem_ctrls1.busUtilWrite                   0.51                       # Data bus utilization in percentage for writes
system.mem_ctrls1.avgRdQLen                      1.03                       # Average read queue length when enqueuing
system.mem_ctrls1.avgWrQLen                     24.79                       # Average write queue length when enqueuing
system.mem_ctrls1.readRowHits                 5162377                       # Number of row buffer hits during reads
system.mem_ctrls1.writeRowHits                 676333                       # Number of row buffer hits during writes
system.mem_ctrls1.readRowHitRate                67.06                       # Row buffer hit rate for reads
system.mem_ctrls1.writeRowHitRate               26.91                       # Row buffer hit rate for writes
system.mem_ctrls1.avgGap                    243062.40                       # Average gap between requests
system.mem_ctrls1.pageHitRate                   57.18                       # Row buffer hit rate, read and write combined
system.mem_ctrls1_0.actEnergy             15677890620                       # Energy for activate commands per rank (pJ)
system.mem_ctrls1_0.preEnergy              8332977510                       # Energy for precharge commands per rank (pJ)
system.mem_ctrls1_0.readEnergy            27721878240                       # Energy for read commands per rank (pJ)
system.mem_ctrls1_0.writeEnergy            6602182920                       # Energy for write commands per rank (pJ)
system.mem_ctrls1_0.refreshEnergy        190767660720.000031                       # Energy for refresh commands per rank (pJ)
system.mem_ctrls1_0.actBackEnergy        141964400070                       # Energy for active background per rank (pJ)
system.mem_ctrls1_0.preBackEnergy          5378852640                       # Energy for precharge background per rank (pJ)
system.mem_ctrls1_0.actPowerDownEnergy   798252224430                       # Energy for active power-down per rank (pJ)
system.mem_ctrls1_0.prePowerDownEnergy   100739535840                       # Energy for precharge power-down per rank (pJ)
system.mem_ctrls1_0.selfRefreshEnergy     40822869150                       # Energy for self refresh per rank (pJ)
system.mem_ctrls1_0.totalEnergy          1336321535400                       # Total energy per rank (pJ)
system.mem_ctrls1_0.averagePower           538.106281                       # Core power per rank (mW)
system.mem_ctrls1_0.totalIdleTime        2157902753685                       # Total Idle time Per DRAM Rank
system.mem_ctrls1_0.memoryStateTime::IDLE   4761024174                       # Time in different power states
system.mem_ctrls1_0.memoryStateTime::REF  80770480000                       # Time in different power states
system.mem_ctrls1_0.memoryStateTime::SREF 145014086628                       # Time in different power states
system.mem_ctrls1_0.memoryStateTime::PRE_PDN 262343563036                       # Time in different power states
system.mem_ctrls1_0.memoryStateTime::ACT 239943791863                       # Time in different power states
system.mem_ctrls1_0.memoryStateTime::ACT_PDN 1750545447375                       # Time in different power states
system.mem_ctrls1_1.actEnergy             15546636000                       # Energy for activate commands per rank (pJ)
system.mem_ctrls1_1.preEnergy              8263217820                       # Energy for precharge commands per rank (pJ)
system.mem_ctrls1_1.readEnergy            27243776700                       # Energy for read commands per rank (pJ)
system.mem_ctrls1_1.writeEnergy            6518923920                       # Energy for write commands per rank (pJ)
system.mem_ctrls1_1.refreshEnergy        191049165840.000031                       # Energy for refresh commands per rank (pJ)
system.mem_ctrls1_1.actBackEnergy        144847424730                       # Energy for active background per rank (pJ)
system.mem_ctrls1_1.preBackEnergy          5485637760                       # Energy for precharge background per rank (pJ)
system.mem_ctrls1_1.actPowerDownEnergy   789117728760                       # Energy for active power-down per rank (pJ)
system.mem_ctrls1_1.prePowerDownEnergy   102981972960                       # Energy for precharge power-down per rank (pJ)
system.mem_ctrls1_1.selfRefreshEnergy     43495533390                       # Energy for self refresh per rank (pJ)
system.mem_ctrls1_1.totalEnergy          1334608681260                       # Total energy per rank (pJ)
system.mem_ctrls1_1.averagePower           537.416557                       # Core power per rank (mW)
system.mem_ctrls1_1.totalIdleTime        2151321348606                       # Total Idle time Per DRAM Rank
system.mem_ctrls1_1.memoryStateTime::IDLE   5124497812                       # Time in different power states
system.mem_ctrls1_1.memoryStateTime::REF  80897636000                       # Time in different power states
system.mem_ctrls1_1.memoryStateTime::SREF 152611042691                       # Time in different power states
system.mem_ctrls1_1.memoryStateTime::PRE_PDN 268182352456                       # Time in different power states
system.mem_ctrls1_1.memoryStateTime::ACT 246034856487                       # Time in different power states
system.mem_ctrls1_1.memoryStateTime::ACT_PDN 1730528007630                       # Time in different power states
system.pwrStateResidencyTicks::UNDEFINED 72513350974422                       # Cumulative time (in ticks) in various power states
system.cpu.branchPred.lookups                       1                       # Number of BP lookups
system.cpu.branchPred.condPredicted                 1                       # Number of conditional branches predicted
system.cpu.branchPred.condIncorrect                 0                       # Number of conditional branches incorrect
system.cpu.branchPred.BTBLookups                    0                       # Number of BTB lookups
system.cpu.branchPred.BTBHits                       0                       # Number of BTB hits
system.cpu.branchPred.BTBCorrect                    0                       # Number of correct BTB predictions (this stat may not work properly.
system.cpu.branchPred.BTBHitPct                   nan                       # BTB Hit Percentage
system.cpu.branchPred.usedRAS                       0                       # Number of times the RAS was used to get a target.
system.cpu.branchPred.RASInCorrect                  0                       # Number of incorrect RAS predictions.
system.cpu.branchPred.indirectLookups               0                       # Number of indirect predictor lookups.
system.cpu.branchPred.indirectHits                  0                       # Number of indirect target hits.
system.cpu.branchPred.indirectMisses                0                       # Number of indirect misses.
system.cpu.branchPredindirectMispredicted            0                       # Number of mispredicted indirect branches.
system.cpu_voltage_domain.voltage                   1                       # Voltage in Volts
system.cpu_clk_domain.clock                       333                       # Clock period in ticks
system.cpu.dtb.fetch_hits                           0                       # ITB hits
system.cpu.dtb.fetch_misses                         0                       # ITB misses
system.cpu.dtb.fetch_acv                            0                       # ITB acv
system.cpu.dtb.fetch_accesses                       0                       # ITB accesses
system.cpu.dtb.read_hits                            2                       # DTB read hits
system.cpu.dtb.read_misses                          0                       # DTB read misses
system.cpu.dtb.read_acv                             0                       # DTB read access violations
system.cpu.dtb.read_accesses                        2                       # DTB read accesses
system.cpu.dtb.write_hits                           0                       # DTB write hits
system.cpu.dtb.write_misses                         0                       # DTB write misses
system.cpu.dtb.write_acv                            0                       # DTB write access violations
system.cpu.dtb.write_accesses                       0                       # DTB write accesses
system.cpu.dtb.data_hits                            2                       # DTB hits
system.cpu.dtb.data_misses                          0                       # DTB misses
system.cpu.dtb.data_acv                             0                       # DTB access violations
system.cpu.dtb.data_accesses                        2                       # DTB accesses
system.cpu.itb.fetch_hits                           3                       # ITB hits
system.cpu.itb.fetch_misses                         0                       # ITB misses
system.cpu.itb.fetch_acv                            0                       # ITB acv
system.cpu.itb.fetch_accesses                       3                       # ITB accesses
system.cpu.itb.read_hits                            0                       # DTB read hits
system.cpu.itb.read_misses                          0                       # DTB read misses
system.cpu.itb.read_acv                             0                       # DTB read access violations
system.cpu.itb.read_accesses                        0                       # DTB read accesses
system.cpu.itb.write_hits                           0                       # DTB write hits
system.cpu.itb.write_misses                         0                       # DTB write misses
system.cpu.itb.write_acv                            0                       # DTB write access violations
system.cpu.itb.write_accesses                       0                       # DTB write accesses
system.cpu.itb.data_hits                            0                       # DTB hits
system.cpu.itb.data_misses                          0                       # DTB misses
system.cpu.itb.data_acv                             0                       # DTB access violations
system.cpu.itb.data_accesses                        0                       # DTB accesses
system.cpu.workload.num_syscalls                    5                       # Number of system calls
system.cpu.pwrStateResidencyTicks::ON    2483378393076                       # Cumulative time (in ticks) in various power states
system.cpu.numCycles                              290                       # number of cpu cycles simulated
system.cpu.numWorkItemsStarted                      0                       # number of work items this cpu started
system.cpu.numWorkItemsCompleted                    0                       # number of work items this cpu completed
system.cpu.fetch.icacheStallCycles                 18                       # Number of cycles fetch is stalled on an Icache miss
[...]
system.switch_cpus_1.iq.int_inst_queue_wakeup_accesses    196292377                       # Number of integer instruction queue wakeup accesses
system.switch_cpus_1.iq.fp_inst_queue_reads    132655018                       # Number of floating instruction queue reads
system.switch_cpus_1.iq.fp_inst_queue_writes     84546017                       # Number of floating instruction queue writes
system.switch_cpus_1.iq.fp_inst_queue_wakeup_accesses     59327130                       # Number of floating instruction queue wakeup accesses
system.switch_cpus_1.iq.int_alu_accesses    212604838                       # Number of integer alu accesses
system.switch_cpus_1.iq.fp_alu_accesses      67897861                       # Number of floating point alu accesses
system.switch_cpus_1.iew.lsq.thread0.forwLoads      2265120                       # Number of loads that had data forwarded from stores
system.switch_cpus_1.iew.lsq.thread0.invAddrLoads            0                       # Number of loads ignored due to an invalid address
system.switch_cpus_1.iew.lsq.thread0.squashedLoads     21481501                       # Number of loads squashed
system.switch_cpus_1.iew.lsq.thread0.ignoredResponses        15126                       # Number of memory responses ignored because the instruction is squashed
system.switch_cpus_1.iew.lsq.thread0.memOrderViolation         8193                       # Number of memory ordering violations
system.switch_cpus_1.iew.lsq.thread0.squashedStores      7144294                       # Number of stores squashed
system.switch_cpus_1.iew.lsq.thread0.invAddrSwpfs            0                       # Number of software prefetches ignored due to an invalid address
system.switch_cpus_1.iew.lsq.thread0.blockedLoads            0                       # Number of blocked loads due to partial load-store forwarding
system.switch_cpus_1.iew.lsq.thread0.rescheduledLoads         5957                       # Number of loads that were rescheduled
system.switch_cpus_1.iew.lsq.thread0.cacheBlocked     12884586                       # Number of times an access to memory failed due to the cache being blocked
system.switch_cpus_1.iew.iewIdleCycles              0                       # Number of cycles IEW is idle
system.switch_cpus_1.iew.iewSquashCycles      1485217                       # Number of cycles IEW is squashing
system.switch_cpus_1.iew.iewBlockCycles     114950232                       # Number of cycles IEW is blocking
system.switch_cpus_1.iew.iewUnblockCycles     47433658                       # Number of cycles IEW is unblocking
system.switch_cpus_1.iew.iewDispatchedInsts    291923675                       # Number of instructions dispatched to IQ
system.switch_cpus_1.iew.iewDispSquashedInsts       148041                       # Number of squashed instructions skipped by dispatch
system.switch_cpus_1.iew.iewDispLoadInsts     61153232                       # Number of dispatched load instructions
system.switch_cpus_1.iew.iewDispStoreInsts     19135337                       # Number of dispatched store instructions
system.switch_cpus_1.iew.iewDispNonSpecInsts          200                       # Number of dispatched non-speculative instructions
system.switch_cpus_1.iew.iewIQFullEvents      1076336                       # Number of times the IQ has become full, causing a stall
system.switch_cpus_1.iew.iewLSQFullEvents     45800079                       # Number of times the LSQ has become full, causing a stall
system.switch_cpus_1.iew.memOrderViolationEvents         8193                       # Number of memory order violations
system.switch_cpus_1.iew.predictedTakenIncorrect       823666                       # Number of branches that were predicted taken incorrectly
system.switch_cpus_1.iew.predictedNotTakenIncorrect       564055                       # Number of branches that were predicted not taken incorrectly
system.switch_cpus_1.iew.branchMispredicts      1387721                       # Number of branch mispredicts detected at execute
system.switch_cpus_1.iew.iewExecutedInsts    271754620                       # Number of executed instructions
system.switch_cpus_1.iew.iewExecLoadInsts     68287069                       # Number of load instructions executed
system.switch_cpus_1.iew.iewExecSquashedInsts      1793924                       # Number of squashed instructions skipped in execute
system.switch_cpus_1.iew.exec_swp                   0                       # number of swp insts executed
system.switch_cpus_1.iew.exec_nop             1881360                       # number of nop insts executed
system.switch_cpus_1.iew.exec_refs           83987631                       # number of memory reference insts executed
system.switch_cpus_1.iew.exec_branches       34660986                       # Number of branches executed
system.switch_cpus_1.iew.exec_stores         15700562                       # Number of stores executed
system.switch_cpus_1.iew.exec_rate           0.579970                       # Inst execution rate
system.switch_cpus_1.iew.wb_sent            257604853                       # cumulative count of insts sent to commit
system.switch_cpus_1.iew.wb_count           255619507                       # cumulative count of insts written-back
system.switch_cpus_1.iew.wb_producers       153405952                       # num instructions producing a value
system.switch_cpus_1.iew.wb_consumers       189178891                       # num instructions consuming a value
system.switch_cpus_1.iew.wb_rate             0.545535                       # insts written-back per cycle
system.switch_cpus_1.iew.wb_fanout           0.810904                       # average fanout of values written-back
system.switch_cpus_1.commit.commitSquashedInsts     86478214                       # The number of squashed insts skipped by commit
system.switch_cpus_1.commit.commitNonSpecStalls          204                       # The number of times commit has been forced to stall to communicate backwards
system.switch_cpus_1.commit.branchMispredicts      1112644                       # The number of times a branch was mispredicted
system.switch_cpus_1.commit.committed_per_cycle::samples    456375508                       # Number of insts commited each cycle
system.switch_cpus_1.commit.committed_per_cycle::mean     0.440905                       # Number of insts commited each cycle
system.switch_cpus_1.commit.committed_per_cycle::stdev     1.698156                       # Number of insts commited each cycle
system.switch_cpus_1.commit.committed_per_cycle::underflows            0      0.00%      0.00% # Number of insts commited each cycle
system.switch_cpus_1.commit.committed_per_cycle::0    417295880     91.44%     91.44% # Number of insts commited each cycle
system.switch_cpus_1.commit.committed_per_cycle::1      9287235      2.03%     93.47% # Number of insts commited each cycle
system.switch_cpus_1.commit.committed_per_cycle::2      3986156      0.87%     94.35% # Number of insts commited each cycle
system.switch_cpus_1.commit.committed_per_cycle::3      1864949      0.41%     94.75% # Number of insts commited each cycle
system.switch_cpus_1.commit.committed_per_cycle::4      1236576      0.27%     95.02% # Number of insts commited each cycle
system.switch_cpus_1.commit.committed_per_cycle::5      1953157      0.43%     95.45% # Number of insts commited each cycle
system.switch_cpus_1.commit.committed_per_cycle::6       731357      0.16%     95.61% # Number of insts commited each cycle
system.switch_cpus_1.commit.committed_per_cycle::7       897861      0.20%     95.81% # Number of insts commited each cycle
system.switch_cpus_1.commit.committed_per_cycle::8     19122337      4.19%    100.00% # Number of insts commited each cycle
system.switch_cpus_1.commit.committed_per_cycle::overflows            0      0.00%    100.00% # Number of insts commited each cycle
system.switch_cpus_1.commit.committed_per_cycle::min_value            0                       # Number of insts commited each cycle
system.switch_cpus_1.commit.committed_per_cycle::max_value            8                       # Number of insts commited each cycle
system.switch_cpus_1.commit.committed_per_cycle::total    456375508                       # Number of insts commited each cycle
system.switch_cpus_1.commit.committedInsts    201218348                       # Number of instructions committed
system.switch_cpus_1.commit.committedOps    201218348                       # Number of ops (including micro ops) committed
system.switch_cpus_1.commit.swp_count               0                       # Number of s/w prefetches committed
system.switch_cpus_1.commit.refs             51662749                       # Number of memory references committed
system.switch_cpus_1.commit.loads            39671713                       # Number of loads committed
system.switch_cpus_1.commit.membars               102                       # Number of memory barriers committed
system.switch_cpus_1.commit.branches         28384894                       # Number of branches committed
system.switch_cpus_1.commit.fp_insts         51627815                       # Number of committed floating point instructions.
system.switch_cpus_1.commit.int_insts       168624392                       # Number of committed integer instructions.
system.switch_cpus_1.commit.function_calls       460018                       # Number of function calls committed.
system.switch_cpus_1.commit.op_class_0::No_OpClass      1218344      0.61%      0.61% # Class of committed instruction
system.switch_cpus_1.commit.op_class_0::IntAlu    117264313     58.28%     58.88% # Class of committed instruction
system.switch_cpus_1.commit.op_class_0::IntMult       166526      0.08%     58.97% # Class of committed instruction
system.switch_cpus_1.commit.op_class_0::IntDiv            0      0.00%     58.97% # Class of committed instruction
system.switch_cpus_1.commit.op_class_0::FloatAdd     18908760      9.40%     68.36% # Class of committed instruction
system.switch_cpus_1.commit.op_class_0::FloatCmp     10580725      5.26%     73.62% # Class of committed instruction
system.switch_cpus_1.commit.op_class_0::FloatCvt         1376      0.00%     73.62% # Class of committed instruction
system.switch_cpus_1.commit.op_class_0::FloatMult       880508      0.44%     74.06% # Class of committed instruction
system.switch_cpus_1.commit.op_class_0::FloatMultAcc            0      0.00%     74.06% # Class of committed instruction
system.switch_cpus_1.commit.op_class_0::FloatDiv       534945      0.27%     74.32% # Class of committed instruction
system.switch_cpus_1.commit.op_class_0::FloatMisc            0      0.00%     74.32% # Class of committed instruction
system.switch_cpus_1.commit.op_class_0::FloatSqrt            0      0.00%     74.32% # Class of committed instruction
system.switch_cpus_1.commit.op_class_0::SimdAdd            0      0.00%     74.32% # Class of committed instruction
system.switch_cpus_1.commit.op_class_0::SimdAddAcc            0      0.00%     74.32% # Class of committed instruction
system.switch_cpus_1.commit.op_class_0::SimdAlu            0      0.00%     74.32% # Class of committed instruction
system.switch_cpus_1.commit.op_class_0::SimdCmp            0      0.00%     74.32% # Class of committed instruction
system.switch_cpus_1.commit.op_class_0::SimdCvt            0      0.00%     74.32% # Class of committed instruction
system.switch_cpus_1.commit.op_class_0::SimdMisc            0      0.00%     74.32% # Class of committed instruction
system.switch_cpus_1.commit.op_class_0::SimdMult            0      0.00%     74.32% # Class of committed instruction
system.switch_cpus_1.commit.op_class_0::SimdMultAcc            0      0.00%     74.32% # Class of committed instruction
system.switch_cpus_1.commit.op_class_0::SimdShift            0      0.00%     74.32% # Class of committed instruction
system.switch_cpus_1.commit.op_class_0::SimdShiftAcc            0      0.00%     74.32% # Class of committed instruction
system.switch_cpus_1.commit.op_class_0::SimdSqrt            0      0.00%     74.32% # Class of committed instruction
system.switch_cpus_1.commit.op_class_0::SimdFloatAdd            0      0.00%     74.32% # Class of committed instruction
system.switch_cpus_1.commit.op_class_0::SimdFloatAlu            0      0.00%     74.32% # Class of committed instruction
system.switch_cpus_1.commit.op_class_0::SimdFloatCmp            0      0.00%     74.32% # Class of committed instruction
system.switch_cpus_1.commit.op_class_0::SimdFloatCvt            0      0.00%     74.32% # Class of committed instruction
system.switch_cpus_1.commit.op_class_0::SimdFloatDiv            0      0.00%     74.32% # Class of committed instruction
system.switch_cpus_1.commit.op_class_0::SimdFloatMisc            0      0.00%     74.32% # Class of committed instruction
system.switch_cpus_1.commit.op_class_0::SimdFloatMult            0      0.00%     74.32% # Class of committed instruction
system.switch_cpus_1.commit.op_class_0::SimdFloatMultAcc            0      0.00%     74.32% # Class of committed instruction
system.switch_cpus_1.commit.op_class_0::SimdFloatSqrt            0      0.00%     74.32% # Class of committed instruction
system.switch_cpus_1.commit.op_class_0::MemRead     20146501     10.01%     84.34% # Class of committed instruction
system.switch_cpus_1.commit.op_class_0::MemWrite     10794849      5.36%     89.70% # Class of committed instruction
system.switch_cpus_1.commit.op_class_0::FloatMemRead     19525314      9.70%     99.41% # Class of committed instruction
system.switch_cpus_1.commit.op_class_0::FloatMemWrite      1196187      0.59%    100.00% # Class of committed instruction
system.switch_cpus_1.commit.op_class_0::IprAccess            0      0.00%    100.00% # Class of committed instruction
system.switch_cpus_1.commit.op_class_0::InstPrefetch            0      0.00%    100.00% # Class of committed instruction
system.switch_cpus_1.commit.op_class_0::total    201218348                       # Class of committed instruction
system.switch_cpus_1.commit.bw_lim_events     19122337                       # number cycles where commit BW limit reached
system.switch_cpus_1.rob.rob_reads          720184674                       # The number of ROB reads
system.switch_cpus_1.rob.rob_writes         587363346                       # The number of ROB writes
system.switch_cpus_1.timesIdled                  2256                       # Number of times that the entire CPU went into an idle state and unscheduled itself
system.switch_cpus_1.idleCycles                243165                       # Total number of cycles that the CPU has spent unscheduled due to idling
system.switch_cpus_1.committedInsts         200000004                       # Number of Instructions Simulated
system.switch_cpus_1.committedOps           200000004                       # Number of Ops (including micro ops) Simulated
system.switch_cpus_1.cpi                     2.342835                       # CPI: Cycles Per Instruction
system.switch_cpus_1.cpi_total               2.342835                       # CPI: Total CPI of All Threads
system.switch_cpus_1.ipc                     0.426833                       # IPC: Instructions Per Cycle
system.switch_cpus_1.ipc_total               0.426833                       # IPC: Total IPC of All Threads
system.switch_cpus_1.int_regfile_reads      353878766                       # number of integer regfile reads
system.switch_cpus_1.int_regfile_writes     160207936                       # number of integer regfile writes
system.switch_cpus_1.fp_regfile_reads        59496871                       # number of floating regfile reads
system.switch_cpus_1.fp_regfile_writes       46501687                       # number of floating regfile writes
system.switch_cpus_1.misc_regfile_reads           243                       # number of misc regfile reads
system.switch_cpus_1.misc_regfile_writes          204                       # number of misc regfile writes
system.tol3bus.snoop_filter.tot_requests     51972657                       # Total number of requests made to the snoop filter.
system.tol3bus.snoop_filter.hit_single_requests     25984091                       # Number of requests hitting in the snoop filter with a single holder of the requested data.
system.tol3bus.snoop_filter.hit_multi_requests            0                       # Number of requests hitting in the snoop filter with multiple (>1) holders of the requested data.
system.tol3bus.snoop_filter.tot_snoops           6426                       # Total number of snoops made to the snoop filter.
system.tol3bus.snoop_filter.hit_single_snoops         6426                       # Number of snoops hitting in the snoop filter with a single holder of the requested data.
system.tol3bus.snoop_filter.hit_multi_snoops            0                       # Number of snoops hitting in the snoop filter with multiple (>1) holders of the requested data.
system.tol3bus.pwrStateResidencyTicks::UNDEFINED 72513350974422                       # Cumulative time (in ticks) in various power states
system.tol3bus.trans_dist::ReadResp          19568794                       # Transaction distribution
system.tol3bus.trans_dist::WritebackDirty     17645242                       # Transaction distribution
system.tol3bus.trans_dist::CleanEvict        23674920                       # Transaction distribution
system.tol3bus.trans_dist::UpgradeReq              27                       # Transaction distribution
system.tol3bus.trans_dist::UpgradeResp             27                       # Transaction distribution
system.tol3bus.trans_dist::ReadExReq          6419772                       # Transaction distribution
system.tol3bus.trans_dist::ReadExResp         6419772                       # Transaction distribution
system.tol3bus.trans_dist::ReadSharedReq     19568794                       # Transaction distribution
system.tol3bus.pkt_count_system.cpu.l2.mem_side::system.l3.cpu_side     77961250                       # Packet count per connected master and slave (bytes)
system.tol3bus.pkt_size_system.cpu.l2.mem_side::system.l3.cpu_side   2470886208                       # Cumulative packet size per connected master and slave (bytes)
system.tol3bus.snoops                        15336098                       # Total snoops (count)
system.tol3bus.snoopTraffic                 321677504                       # Total snoop traffic (bytes)
system.tol3bus.snoop_fanout::samples         41324691                       # Request fanout histogram
system.tol3bus.snoop_fanout::mean            0.000156                       # Request fanout histogram
system.tol3bus.snoop_fanout::stdev           0.012469                       # Request fanout histogram
system.tol3bus.snoop_fanout::underflows             0      0.00%      0.00% # Request fanout histogram
system.tol3bus.snoop_fanout::0               41318265     99.98%     99.98% # Request fanout histogram
system.tol3bus.snoop_fanout::1                   6426      0.02%    100.00% # Request fanout histogram
system.tol3bus.snoop_fanout::overflows              0      0.00%    100.00% # Request fanout histogram
system.tol3bus.snoop_fanout::min_value              0                       # Request fanout histogram
system.tol3bus.snoop_fanout::max_value              1                       # Request fanout histogram
system.tol3bus.snoop_fanout::total           41324691                       # Request fanout histogram
system.tol3bus.reqLayer0.occupancy        21509032104                       # Layer occupancy (ticks)
system.tol3bus.reqLayer0.utilization              0.9                       # Layer utilization (%)
system.tol3bus.respLayer0.occupancy       17308393947                       # Layer occupancy (ticks)
system.tol3bus.respLayer0.utilization             0.7                       # Layer utilization (%)

---------- End Simulation Statistics   ----------
