
---------- Begin Simulation Statistics ----------
sim_seconds                                  1.012802                       # Number of seconds simulated
sim_ticks                                1012801671513                       # Number of ticks simulated
final_tick                               310860683555922                       # Number of ticks from beginning of simulation (restored from checkpoints and never reset)
sim_freq                                 1000000000000                       # Frequency of simulated ticks
host_inst_rate                                 616774                       # Simulator instruction rate (inst/s)
host_op_rate                                   616774                       # Simulator op (including micro ops) rate (op/s)
host_tick_rate                              520557801                       # Simulator tick rate (ticks/s)
host_mem_usage                                2399452                       # Number of bytes of host memory used
host_seconds                                  1945.61                       # Real time elapsed on the host
sim_insts                                  1200000007                       # Number of instructions simulated
sim_ops                                    1200000007                       # Number of ops (including micro ops) simulated
system.voltage_domain.voltage                       1                       # Voltage in Volts
system.clk_domain.clock                          1000                       # Clock period in ticks
system.mem_ctrls0.pwrStateResidencyTicks::UNDEFINED 310860683555922                       # Cumulative time (in ticks) in various power states
system.mem_ctrls0.bytes_read::cpu.inst             64                       # Number of bytes read from this memory
system.mem_ctrls0.bytes_read::switch_cpus.inst        25024                       # Number of bytes read from this memory
system.mem_ctrls0.bytes_read::switch_cpus.data      2627968                       # Number of bytes read from this memory
system.mem_ctrls0.bytes_read::switch_cpus_1.inst         8128                       # Number of bytes read from this memory
system.mem_ctrls0.bytes_read::switch_cpus_1.data       336896                       # Number of bytes read from this memory
system.mem_ctrls0.bytes_read::total           2998080                       # Number of bytes read from this memory
system.mem_ctrls0.bytes_inst_read::cpu.inst           64                       # Number of instructions bytes read from this memory
system.mem_ctrls0.bytes_inst_read::switch_cpus.inst        25024                       # Number of instructions bytes read from this memory
system.mem_ctrls0.bytes_inst_read::switch_cpus_1.inst         8128                       # Number of instructions bytes read from this memory
system.mem_ctrls0.bytes_inst_read::total        33216                       # Number of instructions bytes read from this memory
system.mem_ctrls0.bytes_written::writebacks       160448                       # Number of bytes written to this memory
system.mem_ctrls0.bytes_written::total         160448                       # Number of bytes written to this memory
system.mem_ctrls0.num_reads::cpu.inst               1                       # Number of read requests responded to by this memory
system.mem_ctrls0.num_reads::switch_cpus.inst          391                       # Number of read requests responded to by this memory
system.mem_ctrls0.num_reads::switch_cpus.data        41062                       # Number of read requests responded to by this memory
system.mem_ctrls0.num_reads::switch_cpus_1.inst          127                       # Number of read requests responded to by this memory
system.mem_ctrls0.num_reads::switch_cpus_1.data         5264                       # Number of read requests responded to by this memory
system.mem_ctrls0.num_reads::total              46845                       # Number of read requests responded to by this memory
system.mem_ctrls0.num_writes::writebacks         2507                       # Number of write requests responded to by this memory
system.mem_ctrls0.num_writes::total              2507                       # Number of write requests responded to by this memory
system.mem_ctrls0.bw_read::cpu.inst                63                       # Total read bandwidth from this memory (bytes/s)
system.mem_ctrls0.bw_read::switch_cpus.inst        24708                       # Total read bandwidth from this memory (bytes/s)
system.mem_ctrls0.bw_read::switch_cpus.data      2594751                       # Total read bandwidth from this memory (bytes/s)
system.mem_ctrls0.bw_read::switch_cpus_1.inst         8025                       # Total read bandwidth from this memory (bytes/s)
system.mem_ctrls0.bw_read::switch_cpus_1.data       332638                       # Total read bandwidth from this memory (bytes/s)
system.mem_ctrls0.bw_read::total              2960185                       # Total read bandwidth from this memory (bytes/s)
system.mem_ctrls0.bw_inst_read::cpu.inst           63                       # Instruction read bandwidth from this memory (bytes/s)
system.mem_ctrls0.bw_inst_read::switch_cpus.inst        24708                       # Instruction read bandwidth from this memory (bytes/s)
system.mem_ctrls0.bw_inst_read::switch_cpus_1.inst         8025                       # Instruction read bandwidth from this memory (bytes/s)
system.mem_ctrls0.bw_inst_read::total           32796                       # Instruction read bandwidth from this memory (bytes/s)
system.mem_ctrls0.bw_write::writebacks         158420                       # Write bandwidth from this memory (bytes/s)
system.mem_ctrls0.bw_write::total              158420                       # Write bandwidth from this memory (bytes/s)
system.mem_ctrls0.bw_total::writebacks         158420                       # Total bandwidth to/from this memory (bytes/s)
system.mem_ctrls0.bw_total::cpu.inst               63                       # Total bandwidth to/from this memory (bytes/s)
system.mem_ctrls0.bw_total::switch_cpus.inst        24708                       # Total bandwidth to/from this memory (bytes/s)
system.mem_ctrls0.bw_total::switch_cpus.data      2594751                       # Total bandwidth to/from this memory (bytes/s)
system.mem_ctrls0.bw_total::switch_cpus_1.inst         8025                       # Total bandwidth to/from this memory (bytes/s)
system.mem_ctrls0.bw_total::switch_cpus_1.data       332638                       # Total bandwidth to/from this memory (bytes/s)
system.mem_ctrls0.bw_total::total             3118605                       # Total bandwidth to/from this memory (bytes/s)
system.mem_ctrls0.readReqs                      46845                       # Number of read requests accepted
system.mem_ctrls0.writeReqs                      2507                       # Number of write requests accepted
system.mem_ctrls0.readBursts                    46845                       # Number of DRAM read bursts, including those serviced by the write queue
system.mem_ctrls0.writeBursts                    2507                       # Number of DRAM write bursts, including those merged in the write queue
system.mem_ctrls0.bytesReadDRAM               2988672                       # Total number of bytes read from DRAM
system.mem_ctrls0.bytesReadWrQ                   9408                       # Total number of bytes read from write queue
system.mem_ctrls0.bytesWritten                 158528                       # Total number of bytes written to DRAM
system.mem_ctrls0.bytesReadSys                2998080                       # Total read bytes from the system interface side
system.mem_ctrls0.bytesWrittenSys              160448                       # Total written bytes from the system interface side
system.mem_ctrls0.servicedByWrQ                   147                       # Number of DRAM read bursts serviced by the write queue
system.mem_ctrls0.mergedWrBursts                    0                       # Number of DRAM write bursts merged with an existing one
system.mem_ctrls0.neitherReadNorWriteReqs            0                       # Number of requests that are neither read nor write
system.mem_ctrls0.perBankRdBursts::0             3103                       # Per bank write bursts
system.mem_ctrls0.perBankRdBursts::1             3075                       # Per bank write bursts
system.mem_ctrls0.perBankRdBursts::2             2869                       # Per bank write bursts
system.mem_ctrls0.perBankRdBursts::3             2747                       # Per bank write bursts
system.mem_ctrls0.perBankRdBursts::4             2684                       # Per bank write bursts
system.mem_ctrls0.perBankRdBursts::5             2779                       # Per bank write bursts
system.mem_ctrls0.perBankRdBursts::6             2930                       # Per bank write bursts
system.mem_ctrls0.perBankRdBursts::7             3206                       # Per bank write bursts
system.mem_ctrls0.perBankRdBursts::8             3364                       # Per bank write bursts
system.mem_ctrls0.perBankRdBursts::9             3284                       # Per bank write bursts
system.mem_ctrls0.perBankRdBursts::10            2815                       # Per bank write bursts
system.mem_ctrls0.perBankRdBursts::11            2601                       # Per bank write bursts
system.mem_ctrls0.perBankRdBursts::12            2693                       # Per bank write bursts
system.mem_ctrls0.perBankRdBursts::13            2672                       # Per bank write bursts
system.mem_ctrls0.perBankRdBursts::14            2938                       # Per bank write bursts
system.mem_ctrls0.perBankRdBursts::15            2938                       # Per bank write bursts
system.mem_ctrls0.perBankWrBursts::0              294                       # Per bank write bursts
system.mem_ctrls0.perBankWrBursts::1              311                       # Per bank write bursts
system.mem_ctrls0.perBankWrBursts::2              144                       # Per bank write bursts
system.mem_ctrls0.perBankWrBursts::3               76                       # Per bank write bursts
system.mem_ctrls0.perBankWrBursts::4               79                       # Per bank write bursts
system.mem_ctrls0.perBankWrBursts::5               38                       # Per bank write bursts
system.mem_ctrls0.perBankWrBursts::6              154                       # Per bank write bursts
system.mem_ctrls0.perBankWrBursts::7              165                       # Per bank write bursts
system.mem_ctrls0.perBankWrBursts::8              232                       # Per bank write bursts
system.mem_ctrls0.perBankWrBursts::9              260                       # Per bank write bursts
system.mem_ctrls0.perBankWrBursts::10             104                       # Per bank write bursts
system.mem_ctrls0.perBankWrBursts::11              49                       # Per bank write bursts
system.mem_ctrls0.perBankWrBursts::12              53                       # Per bank write bursts
system.mem_ctrls0.perBankWrBursts::13              56                       # Per bank write bursts
system.mem_ctrls0.perBankWrBursts::14             222                       # Per bank write bursts
system.mem_ctrls0.perBankWrBursts::15             240                       # Per bank write bursts
system.mem_ctrls0.numRdRetry                        0                       # Number of times read queue was full causing retry
system.mem_ctrls0.numWrRetry                        0                       # Number of times write queue was full causing retry
system.mem_ctrls0.totGap                 1012801609908                       # Total gap between requests
system.mem_ctrls0.readPktSize::0                    0                       # Read request sizes (log2)
system.mem_ctrls0.readPktSize::1                    0                       # Read request sizes (log2)
system.mem_ctrls0.readPktSize::2                    0                       # Read request sizes (log2)
system.mem_ctrls0.readPktSize::3                    0                       # Read request sizes (log2)
system.mem_ctrls0.readPktSize::4                    0                       # Read request sizes (log2)
system.mem_ctrls0.readPktSize::5                    0                       # Read request sizes (log2)
system.mem_ctrls0.readPktSize::6                46845                       # Read request sizes (log2)
system.mem_ctrls0.writePktSize::0                   0                       # Write request sizes (log2)
system.mem_ctrls0.writePktSize::1                   0                       # Write request sizes (log2)
system.mem_ctrls0.writePktSize::2                   0                       # Write request sizes (log2)
system.mem_ctrls0.writePktSize::3                   0                       # Write request sizes (log2)
system.mem_ctrls0.writePktSize::4                   0                       # Write request sizes (log2)
system.mem_ctrls0.writePktSize::5                   0                       # Write request sizes (log2)
system.mem_ctrls0.writePktSize::6                2507                       # Write request sizes (log2)
system.mem_ctrls0.rdQLenPdf::0                  45800                       # What read queue length does an incoming req see
system.mem_ctrls0.rdQLenPdf::1                    892                       # What read queue length does an incoming req see
system.mem_ctrls0.rdQLenPdf::2                      4                       # What read queue length does an incoming req see
system.mem_ctrls0.rdQLenPdf::3                      2                       # What read queue length does an incoming req see
system.mem_ctrls0.rdQLenPdf::4                      0                       # What read queue length does an incoming req see
system.mem_ctrls0.rdQLenPdf::5                      0                       # What read queue length does an incoming req see
system.mem_ctrls0.rdQLenPdf::6                      0                       # What read queue length does an incoming req see
system.mem_ctrls0.rdQLenPdf::7                      0                       # What read queue length does an incoming req see
system.mem_ctrls0.rdQLenPdf::8                      0                       # What read queue length does an incoming req see
system.mem_ctrls0.rdQLenPdf::9                      0                       # What read queue length does an incoming req see
system.mem_ctrls0.rdQLenPdf::10                     0                       # What read queue length does an incoming req see
system.mem_ctrls0.rdQLenPdf::11                     0                       # What read queue length does an incoming req see
system.mem_ctrls0.rdQLenPdf::12                     0                       # What read queue length does an incoming req see
system.mem_ctrls0.rdQLenPdf::13                     0                       # What read queue length does an incoming req see
system.mem_ctrls0.rdQLenPdf::14                     0                       # What read queue length does an incoming req see
system.mem_ctrls0.rdQLenPdf::15                     0                       # What read queue length does an incoming req see
system.mem_ctrls0.rdQLenPdf::16                     0                       # What read queue length does an incoming req see
system.mem_ctrls0.rdQLenPdf::17                     0                       # What read queue length does an incoming req see
system.mem_ctrls0.rdQLenPdf::18                     0                       # What read queue length does an incoming req see
system.mem_ctrls0.rdQLenPdf::19                     0                       # What read queue length does an incoming req see
system.mem_ctrls0.rdQLenPdf::20                     0                       # What read queue length does an incoming req see
system.mem_ctrls0.rdQLenPdf::21                     0                       # What read queue length does an incoming req see
system.mem_ctrls0.rdQLenPdf::22                     0                       # What read queue length does an incoming req see
system.mem_ctrls0.rdQLenPdf::23                     0                       # What read queue length does an incoming req see
system.mem_ctrls0.rdQLenPdf::24                     0                       # What read queue length does an incoming req see
system.mem_ctrls0.rdQLenPdf::25                     0                       # What read queue length does an incoming req see
system.mem_ctrls0.rdQLenPdf::26                     0                       # What read queue length does an incoming req see
system.mem_ctrls0.rdQLenPdf::27                     0                       # What read queue length does an incoming req see
system.mem_ctrls0.rdQLenPdf::28                     0                       # What read queue length does an incoming req see
system.mem_ctrls0.rdQLenPdf::29                     0                       # What read queue length does an incoming req see
system.mem_ctrls0.rdQLenPdf::30                     0                       # What read queue length does an incoming req see
system.mem_ctrls0.rdQLenPdf::31                     0                       # What read queue length does an incoming req see
system.mem_ctrls0.wrQLenPdf::0                      2                       # What write queue length does an incoming req see
system.mem_ctrls0.wrQLenPdf::1                      2                       # What write queue length does an incoming req see
system.mem_ctrls0.wrQLenPdf::2                      2                       # What write queue length does an incoming req see
system.mem_ctrls0.wrQLenPdf::3                      2                       # What write queue length does an incoming req see
system.mem_ctrls0.wrQLenPdf::4                      2                       # What write queue length does an incoming req see
system.mem_ctrls0.wrQLenPdf::5                      2                       # What write queue length does an incoming req see
system.mem_ctrls0.wrQLenPdf::6                      2                       # What write queue length does an incoming req see
system.mem_ctrls0.wrQLenPdf::7                      2                       # What write queue length does an incoming req see
system.mem_ctrls0.wrQLenPdf::8                      2                       # What write queue length does an incoming req see
system.mem_ctrls0.wrQLenPdf::9                      2                       # What write queue length does an incoming req see
system.mem_ctrls0.wrQLenPdf::10                     2                       # What write queue length does an incoming req see
system.mem_ctrls0.wrQLenPdf::11                     2                       # What write queue length does an incoming req see
system.mem_ctrls0.wrQLenPdf::12                     2                       # What write queue length does an incoming req see
system.mem_ctrls0.wrQLenPdf::13                     2                       # What write queue length does an incoming req see
system.mem_ctrls0.wrQLenPdf::14                     2                       # What write queue length does an incoming req see
system.mem_ctrls0.wrQLenPdf::15                    89                       # What write queue length does an incoming req see
system.mem_ctrls0.wrQLenPdf::16                    93                       # What write queue length does an incoming req see
system.mem_ctrls0.wrQLenPdf::17                   136                       # What write queue length does an incoming req see
system.mem_ctrls0.wrQLenPdf::18                   142                       # What write queue length does an incoming req see
system.mem_ctrls0.wrQLenPdf::19                   142                       # What write queue length does an incoming req see
system.mem_ctrls0.wrQLenPdf::20                   145                       # What write queue length does an incoming req see
system.mem_ctrls0.wrQLenPdf::21                   144                       # What write queue length does an incoming req see
system.mem_ctrls0.wrQLenPdf::22                   144                       # What write queue length does an incoming req see
system.mem_ctrls0.wrQLenPdf::23                   143                       # What write queue length does an incoming req see
system.mem_ctrls0.wrQLenPdf::24                   144                       # What write queue length does an incoming req see
system.mem_ctrls0.wrQLenPdf::25                   144                       # What write queue length does an incoming req see
system.mem_ctrls0.wrQLenPdf::26                   144                       # What write queue length does an incoming req see
system.mem_ctrls0.wrQLenPdf::27                   143                       # What write queue length does an incoming req see
system.mem_ctrls0.wrQLenPdf::28                   146                       # What write queue length does an incoming req see
system.mem_ctrls0.wrQLenPdf::29                   145                       # What write queue length does an incoming req see
system.mem_ctrls0.wrQLenPdf::30                   145                       # What write queue length does an incoming req see
system.mem_ctrls0.wrQLenPdf::31                   141                       # What write queue length does an incoming req see
system.mem_ctrls0.wrQLenPdf::32                   141                       # What write queue length does an incoming req see
system.mem_ctrls0.wrQLenPdf::33                     5                       # What write queue length does an incoming req see
system.mem_ctrls0.wrQLenPdf::34                     1                       # What write queue length does an incoming req see
system.mem_ctrls0.wrQLenPdf::35                     0                       # What write queue length does an incoming req see
system.mem_ctrls0.wrQLenPdf::36                     0                       # What write queue length does an incoming req see
system.mem_ctrls0.wrQLenPdf::37                     0                       # What write queue length does an incoming req see
system.mem_ctrls0.wrQLenPdf::38                     0                       # What write queue length does an incoming req see
system.mem_ctrls0.wrQLenPdf::39                     0                       # What write queue length does an incoming req see
system.mem_ctrls0.wrQLenPdf::40                     0                       # What write queue length does an incoming req see
system.mem_ctrls0.wrQLenPdf::41                     0                       # What write queue length does an incoming req see
system.mem_ctrls0.wrQLenPdf::42                     0                       # What write queue length does an incoming req see
system.mem_ctrls0.wrQLenPdf::43                     0                       # What write queue length does an incoming req see
system.mem_ctrls0.wrQLenPdf::44                     0                       # What write queue length does an incoming req see
system.mem_ctrls0.wrQLenPdf::45                     0                       # What write queue length does an incoming req see
system.mem_ctrls0.wrQLenPdf::46                     0                       # What write queue length does an incoming req see
system.mem_ctrls0.wrQLenPdf::47                     0                       # What write queue length does an incoming req see
system.mem_ctrls0.wrQLenPdf::48                     0                       # What write queue length does an incoming req see
system.mem_ctrls0.wrQLenPdf::49                     0                       # What write queue length does an incoming req see
system.mem_ctrls0.wrQLenPdf::50                     0                       # What write queue length does an incoming req see
system.mem_ctrls0.wrQLenPdf::51                     0                       # What write queue length does an incoming req see
system.mem_ctrls0.wrQLenPdf::52                     0                       # What write queue length does an incoming req see
system.mem_ctrls0.wrQLenPdf::53                     0                       # What write queue length does an incoming req see
system.mem_ctrls0.wrQLenPdf::54                     0                       # What write queue length does an incoming req see
system.mem_ctrls0.wrQLenPdf::55                     0                       # What write queue length does an incoming req see
system.mem_ctrls0.wrQLenPdf::56                     0                       # What write queue length does an incoming req see
system.mem_ctrls0.wrQLenPdf::57                     0                       # What write queue length does an incoming req see
system.mem_ctrls0.wrQLenPdf::58                     0                       # What write queue length does an incoming req see
system.mem_ctrls0.wrQLenPdf::59                     0                       # What write queue length does an incoming req see
system.mem_ctrls0.wrQLenPdf::60                     0                       # What write queue length does an incoming req see
system.mem_ctrls0.wrQLenPdf::61                     0                       # What write queue length does an incoming req see
system.mem_ctrls0.wrQLenPdf::62                     0                       # What write queue length does an incoming req see
system.mem_ctrls0.wrQLenPdf::63                     0                       # What write queue length does an incoming req see
system.mem_ctrls0.bytesPerActivate::samples        24422                       # Bytes accessed per row activation
system.mem_ctrls0.bytesPerActivate::mean   128.854312                       # Bytes accessed per row activation
system.mem_ctrls0.bytesPerActivate::gmean   113.783008                       # Bytes accessed per row activation
system.mem_ctrls0.bytesPerActivate::stdev   107.831395                       # Bytes accessed per row activation
system.mem_ctrls0.bytesPerActivate::0-127         5941     24.33%     24.33% # Bytes accessed per row activation
system.mem_ctrls0.bytesPerActivate::128-255        17661     72.32%     96.64% # Bytes accessed per row activation
system.mem_ctrls0.bytesPerActivate::256-383          262      1.07%     97.72% # Bytes accessed per row activation
system.mem_ctrls0.bytesPerActivate::384-511          121      0.50%     98.21% # Bytes accessed per row activation
system.mem_ctrls0.bytesPerActivate::512-639           89      0.36%     98.58% # Bytes accessed per row activation
system.mem_ctrls0.bytesPerActivate::640-767           58      0.24%     98.81% # Bytes accessed per row activation
system.mem_ctrls0.bytesPerActivate::768-895           44      0.18%     98.99% # Bytes accessed per row activation
system.mem_ctrls0.bytesPerActivate::896-1023           30      0.12%     99.12% # Bytes accessed per row activation
system.mem_ctrls0.bytesPerActivate::1024-1151          216      0.88%    100.00% # Bytes accessed per row activation
system.mem_ctrls0.bytesPerActivate::total        24422                       # Bytes accessed per row activation
system.mem_ctrls0.rdPerTurnAround::samples          142                       # Reads before turning the bus around for writes
system.mem_ctrls0.rdPerTurnAround::mean    328.859155                       # Reads before turning the bus around for writes
system.mem_ctrls0.rdPerTurnAround::stdev  3258.474421                       # Reads before turning the bus around for writes
system.mem_ctrls0.rdPerTurnAround::0-2047          141     99.30%     99.30% # Reads before turning the bus around for writes
system.mem_ctrls0.rdPerTurnAround::36864-38911            1      0.70%    100.00% # Reads before turning the bus around for writes
system.mem_ctrls0.rdPerTurnAround::total          142                       # Reads before turning the bus around for writes
system.mem_ctrls0.wrPerTurnAround::samples          142                       # Writes before turning the bus around for reads
system.mem_ctrls0.wrPerTurnAround::mean     17.443662                       # Writes before turning the bus around for reads
system.mem_ctrls0.wrPerTurnAround::gmean    17.405806                       # Writes before turning the bus around for reads
system.mem_ctrls0.wrPerTurnAround::stdev     1.151777                       # Writes before turning the bus around for reads
system.mem_ctrls0.wrPerTurnAround::16              49     34.51%     34.51% # Writes before turning the bus around for reads
system.mem_ctrls0.wrPerTurnAround::17               2      1.41%     35.92% # Writes before turning the bus around for reads
system.mem_ctrls0.wrPerTurnAround::18              75     52.82%     88.73% # Writes before turning the bus around for reads
system.mem_ctrls0.wrPerTurnAround::19              12      8.45%     97.18% # Writes before turning the bus around for reads
system.mem_ctrls0.wrPerTurnAround::20               3      2.11%     99.30% # Writes before turning the bus around for reads
system.mem_ctrls0.wrPerTurnAround::21               1      0.70%    100.00% # Writes before turning the bus around for reads
system.mem_ctrls0.wrPerTurnAround::total          142                       # Writes before turning the bus around for reads
system.mem_ctrls0.totQLat                  9516364359                       # Total ticks spent queuing
system.mem_ctrls0.totMemAccLat            10391951859                       # Total ticks spent from burst creation until serviced by the DRAM
system.mem_ctrls0.totBusLat                 233490000                       # Total ticks spent in databus transfers
system.mem_ctrls0.avgQLat                   203785.27                       # Average queueing delay per DRAM burst
system.mem_ctrls0.avgBusLat                   5000.00                       # Average bus latency per DRAM burst
system.mem_ctrls0.avgMemAccLat              222535.27                       # Average memory access latency per DRAM burst
system.mem_ctrls0.avgRdBW                        2.95                       # Average DRAM read bandwidth in MiByte/s
system.mem_ctrls0.avgWrBW                        0.16                       # Average achieved write bandwidth in MiByte/s
system.mem_ctrls0.avgRdBWSys                     2.96                       # Average system read bandwidth in MiByte/s
system.mem_ctrls0.avgWrBWSys                     0.16                       # Average system write bandwidth in MiByte/s
system.mem_ctrls0.peakBW                     12800.00                       # Theoretical peak bandwidth in MiByte/s
system.mem_ctrls0.busUtil                        0.02                       # Data bus utilization in percentage
system.mem_ctrls0.busUtilRead                    0.02                       # Data bus utilization in percentage for reads
system.mem_ctrls0.busUtilWrite                   0.00                       # Data bus utilization in percentage for writes
system.mem_ctrls0.avgRdQLen                      1.00                       # Average read queue length when enqueuing
system.mem_ctrls0.avgWrQLen                      9.22                       # Average write queue length when enqueuing
system.mem_ctrls0.readRowHits                   23380                       # Number of row buffer hits during reads
system.mem_ctrls0.writeRowHits                   1369                       # Number of row buffer hits during writes
system.mem_ctrls0.readRowHitRate                50.07                       # Row buffer hit rate for reads
system.mem_ctrls0.writeRowHitRate               54.61                       # Row buffer hit rate for writes
system.mem_ctrls0.avgGap                  20521997.28                       # Average gap between requests
system.mem_ctrls0.pageHitRate                   50.30                       # Row buffer hit rate, read and write combined
system.mem_ctrls0_0.actEnergy                91313460                       # Energy for activate commands per rank (pJ)
system.mem_ctrls0_0.preEnergy                48522870                       # Energy for precharge commands per rank (pJ)
system.mem_ctrls0_0.readEnergy              167026020                       # Energy for read commands per rank (pJ)
system.mem_ctrls0_0.writeEnergy               6582420                       # Energy for write commands per rank (pJ)
system.mem_ctrls0_0.refreshEnergy        15967117920.000004                       # Energy for refresh commands per rank (pJ)
system.mem_ctrls0_0.actBackEnergy          3442533810                       # Energy for active background per rank (pJ)
system.mem_ctrls0_0.preBackEnergy          1055785920                       # Energy for precharge background per rank (pJ)
system.mem_ctrls0_0.actPowerDownEnergy    31317067110                       # Energy for active power-down per rank (pJ)
system.mem_ctrls0_0.prePowerDownEnergy    24778233600                       # Energy for precharge power-down per rank (pJ)
system.mem_ctrls0_0.selfRefreshEnergy    213108127950                       # Energy for self refresh per rank (pJ)
system.mem_ctrls0_0.totalEnergy          289982386050                       # Total energy per rank (pJ)
system.mem_ctrls0_0.averagePower           286.317049                       # Core power per rank (mW)
system.mem_ctrls0_0.totalIdleTime        1002502972050                       # Total Idle time Per DRAM Rank
system.mem_ctrls0_0.memoryStateTime::IDLE   2207505618                       # Time in different power states
system.mem_ctrls0_0.memoryStateTime::REF   6802964000                       # Time in different power states
system.mem_ctrls0_0.memoryStateTime::SREF 869298248175                       # Time in different power states
system.mem_ctrls0_0.memoryStateTime::PRE_PDN  64526779289                       # Time in different power states
system.mem_ctrls0_0.memoryStateTime::ACT   1288229845                       # Time in different power states
system.mem_ctrls0_0.memoryStateTime::ACT_PDN  68677944586                       # Time in different power states
system.mem_ctrls0_1.actEnergy                83088180                       # Energy for activate commands per rank (pJ)
system.mem_ctrls0_1.preEnergy                44158620                       # Energy for precharge commands per rank (pJ)
system.mem_ctrls0_1.readEnergy              166397700                       # Energy for read commands per rank (pJ)
system.mem_ctrls0_1.writeEnergy               6347520                       # Energy for write commands per rank (pJ)
system.mem_ctrls0_1.refreshEnergy        17045196480.000004                       # Energy for refresh commands per rank (pJ)
system.mem_ctrls0_1.actBackEnergy          3629311410                       # Energy for active background per rank (pJ)
system.mem_ctrls0_1.preBackEnergy          1143748320                       # Energy for precharge background per rank (pJ)
system.mem_ctrls0_1.actPowerDownEnergy    32493953520                       # Energy for active power-down per rank (pJ)
system.mem_ctrls0_1.prePowerDownEnergy    26743254720                       # Energy for precharge power-down per rank (pJ)
system.mem_ctrls0_1.selfRefreshEnergy    211512727125                       # Energy for self refresh per rank (pJ)
system.mem_ctrls0_1.totalEnergy          292868461365                       # Total energy per rank (pJ)
system.mem_ctrls0_1.averagePower           289.166645                       # Core power per rank (mW)
system.mem_ctrls0_1.totalIdleTime        1001863665589                       # Total Idle time Per DRAM Rank
system.mem_ctrls0_1.memoryStateTime::IDLE   2402254480                       # Time in different power states
system.mem_ctrls0_1.memoryStateTime::REF   7263408000                       # Time in different power states
system.mem_ctrls0_1.memoryStateTime::SREF 860960967656                       # Time in different power states
system.mem_ctrls0_1.memoryStateTime::PRE_PDN  69644059210                       # Time in different power states
system.mem_ctrls0_1.memoryStateTime::ACT   1272343444                       # Time in different power states
system.mem_ctrls0_1.memoryStateTime::ACT_PDN  71258638723                       # Time in different power states
system.mem_ctrls1.pwrStateResidencyTicks::UNDEFINED 310860683555922                       # Cumulative time (in ticks) in various power states
system.mem_ctrls1.bytes_read::cpu.inst            128                       # Number of bytes read from this memory
system.mem_ctrls1.bytes_read::switch_cpus.inst        25408                       # Number of bytes read from this memory
system.mem_ctrls1.bytes_read::switch_cpus.data      2627136                       # Number of bytes read from this memory
system.mem_ctrls1.bytes_read::switch_cpus_1.inst         8000                       # Number of bytes read from this memory
system.mem_ctrls1.bytes_read::switch_cpus_1.data       340416                       # Number of bytes read from this memory
system.mem_ctrls1.bytes_read::total           3001088                       # Number of bytes read from this memory
system.mem_ctrls1.bytes_inst_read::cpu.inst          128                       # Number of instructions bytes read from this memory
system.mem_ctrls1.bytes_inst_read::switch_cpus.inst        25408                       # Number of instructions bytes read from this memory
system.mem_ctrls1.bytes_inst_read::switch_cpus_1.inst         8000                       # Number of instructions bytes read from this memory
system.mem_ctrls1.bytes_inst_read::total        33536                       # Number of instructions bytes read from this memory
system.mem_ctrls1.bytes_written::writebacks       164480                       # Number of bytes written to this memory
system.mem_ctrls1.bytes_written::total         164480                       # Number of bytes written to this memory
system.mem_ctrls1.num_reads::cpu.inst               2                       # Number of read requests responded to by this memory
system.mem_ctrls1.num_reads::switch_cpus.inst          397                       # Number of read requests responded to by this memory
system.mem_ctrls1.num_reads::switch_cpus.data        41049                       # Number of read requests responded to by this memory
system.mem_ctrls1.num_reads::switch_cpus_1.inst          125                       # Number of read requests responded to by this memory
system.mem_ctrls1.num_reads::switch_cpus_1.data         5319                       # Number of read requests responded to by this memory
system.mem_ctrls1.num_reads::total              46892                       # Number of read requests responded to by this memory
system.mem_ctrls1.num_writes::writebacks         2570                       # Number of write requests responded to by this memory
system.mem_ctrls1.num_writes::total              2570                       # Number of write requests responded to by this memory
system.mem_ctrls1.bw_read::cpu.inst               126                       # Total read bandwidth from this memory (bytes/s)
system.mem_ctrls1.bw_read::switch_cpus.inst        25087                       # Total read bandwidth from this memory (bytes/s)
system.mem_ctrls1.bw_read::switch_cpus.data      2593929                       # Total read bandwidth from this memory (bytes/s)
system.mem_ctrls1.bw_read::switch_cpus_1.inst         7899                       # Total read bandwidth from this memory (bytes/s)
system.mem_ctrls1.bw_read::switch_cpus_1.data       336113                       # Total read bandwidth from this memory (bytes/s)
system.mem_ctrls1.bw_read::total              2963155                       # Total read bandwidth from this memory (bytes/s)
system.mem_ctrls1.bw_inst_read::cpu.inst          126                       # Instruction read bandwidth from this memory (bytes/s)
system.mem_ctrls1.bw_inst_read::switch_cpus.inst        25087                       # Instruction read bandwidth from this memory (bytes/s)
system.mem_ctrls1.bw_inst_read::switch_cpus_1.inst         7899                       # Instruction read bandwidth from this memory (bytes/s)
system.mem_ctrls1.bw_inst_read::total           33112                       # Instruction read bandwidth from this memory (bytes/s)
system.mem_ctrls1.bw_write::writebacks         162401                       # Write bandwidth from this memory (bytes/s)
system.mem_ctrls1.bw_write::total              162401                       # Write bandwidth from this memory (bytes/s)
system.mem_ctrls1.bw_total::writebacks         162401                       # Total bandwidth to/from this memory (bytes/s)
system.mem_ctrls1.bw_total::cpu.inst              126                       # Total bandwidth to/from this memory (bytes/s)
system.mem_ctrls1.bw_total::switch_cpus.inst        25087                       # Total bandwidth to/from this memory (bytes/s)
system.mem_ctrls1.bw_total::switch_cpus.data      2593929                       # Total bandwidth to/from this memory (bytes/s)
system.mem_ctrls1.bw_total::switch_cpus_1.inst         7899                       # Total bandwidth to/from this memory (bytes/s)
system.mem_ctrls1.bw_total::switch_cpus_1.data       336113                       # Total bandwidth to/from this memory (bytes/s)
system.mem_ctrls1.bw_total::total             3125556                       # Total bandwidth to/from this memory (bytes/s)
system.mem_ctrls1.readReqs                      46892                       # Number of read requests accepted
system.mem_ctrls1.writeReqs                      2570                       # Number of write requests accepted
system.mem_ctrls1.readBursts                    46892                       # Number of DRAM read bursts, including those serviced by the write queue
system.mem_ctrls1.writeBursts                    2570                       # Number of DRAM write bursts, including those merged in the write queue
system.mem_ctrls1.bytesReadDRAM               2990912                       # Total number of bytes read from DRAM
system.mem_ctrls1.bytesReadWrQ                  10176                       # Total number of bytes read from write queue
system.mem_ctrls1.bytesWritten                 162624                       # Total number of bytes written to DRAM
system.mem_ctrls1.bytesReadSys                3001088                       # Total read bytes from the system interface side
system.mem_ctrls1.bytesWrittenSys              164480                       # Total written bytes from the system interface side
system.mem_ctrls1.servicedByWrQ                   159                       # Number of DRAM read bursts serviced by the write queue
system.mem_ctrls1.mergedWrBursts                    2                       # Number of DRAM write bursts merged with an existing one
system.mem_ctrls1.neitherReadNorWriteReqs            0                       # Number of requests that are neither read nor write
system.mem_ctrls1.perBankRdBursts::0             3132                       # Per bank write bursts
system.mem_ctrls1.perBankRdBursts::1             3040                       # Per bank write bursts
system.mem_ctrls1.perBankRdBursts::2             2870                       # Per bank write bursts
system.mem_ctrls1.perBankRdBursts::3             2764                       # Per bank write bursts
system.mem_ctrls1.perBankRdBursts::4             2680                       # Per bank write bursts
system.mem_ctrls1.perBankRdBursts::5             2763                       # Per bank write bursts
system.mem_ctrls1.perBankRdBursts::6             2952                       # Per bank write bursts
system.mem_ctrls1.perBankRdBursts::7             3211                       # Per bank write bursts
system.mem_ctrls1.perBankRdBursts::8             3378                       # Per bank write bursts
system.mem_ctrls1.perBankRdBursts::9             3285                       # Per bank write bursts
system.mem_ctrls1.perBankRdBursts::10            2816                       # Per bank write bursts
system.mem_ctrls1.perBankRdBursts::11            2601                       # Per bank write bursts
system.mem_ctrls1.perBankRdBursts::12            2698                       # Per bank write bursts
system.mem_ctrls1.perBankRdBursts::13            2690                       # Per bank write bursts
system.mem_ctrls1.perBankRdBursts::14            2905                       # Per bank write bursts
system.mem_ctrls1.perBankRdBursts::15            2948                       # Per bank write bursts
system.mem_ctrls1.perBankWrBursts::0              354                       # Per bank write bursts
system.mem_ctrls1.perBankWrBursts::1              287                       # Per bank write bursts
system.mem_ctrls1.perBankWrBursts::2              136                       # Per bank write bursts
system.mem_ctrls1.perBankWrBursts::3               89                       # Per bank write bursts
system.mem_ctrls1.perBankWrBursts::4               62                       # Per bank write bursts
system.mem_ctrls1.perBankWrBursts::5               35                       # Per bank write bursts
system.mem_ctrls1.perBankWrBursts::6              144                       # Per bank write bursts
system.mem_ctrls1.perBankWrBursts::7              176                       # Per bank write bursts
system.mem_ctrls1.perBankWrBursts::8              231                       # Per bank write bursts
system.mem_ctrls1.perBankWrBursts::9              288                       # Per bank write bursts
system.mem_ctrls1.perBankWrBursts::10             119                       # Per bank write bursts
system.mem_ctrls1.perBankWrBursts::11              40                       # Per bank write bursts
system.mem_ctrls1.perBankWrBursts::12              63                       # Per bank write bursts
system.mem_ctrls1.perBankWrBursts::13              62                       # Per bank write bursts
system.mem_ctrls1.perBankWrBursts::14             198                       # Per bank write bursts
system.mem_ctrls1.perBankWrBursts::15             257                       # Per bank write bursts
system.mem_ctrls1.numRdRetry                        0                       # Number of times read queue was full causing retry
system.mem_ctrls1.numWrRetry                        0                       # Number of times write queue was full causing retry
system.mem_ctrls1.totGap                 1012801462389                       # Total gap between requests
system.mem_ctrls1.readPktSize::0                    0                       # Read request sizes (log2)
system.mem_ctrls1.readPktSize::1                    0                       # Read request sizes (log2)
system.mem_ctrls1.readPktSize::2                    0                       # Read request sizes (log2)
system.mem_ctrls1.readPktSize::3                    0                       # Read request sizes (log2)
system.mem_ctrls1.readPktSize::4                    0                       # Read request sizes (log2)
system.mem_ctrls1.readPktSize::5                    0                       # Read request sizes (log2)
system.mem_ctrls1.readPktSize::6                46892                       # Read request sizes (log2)
system.mem_ctrls1.writePktSize::0                   0                       # Write request sizes (log2)
system.mem_ctrls1.writePktSize::1                   0                       # Write request sizes (log2)
system.mem_ctrls1.writePktSize::2                   0                       # Write request sizes (log2)
system.mem_ctrls1.writePktSize::3                   0                       # Write request sizes (log2)
system.mem_ctrls1.writePktSize::4                   0                       # Write request sizes (log2)
system.mem_ctrls1.writePktSize::5                   0                       # Write request sizes (log2)
system.mem_ctrls1.writePktSize::6                2570                       # Write request sizes (log2)
system.mem_ctrls1.rdQLenPdf::0                  45621                       # What read queue length does an incoming req see
system.mem_ctrls1.rdQLenPdf::1                   1112                       # What read queue length does an incoming req see
system.mem_ctrls1.rdQLenPdf::2                      0                       # What read queue length does an incoming req see
system.mem_ctrls1.rdQLenPdf::3                      0                       # What read queue length does an incoming req see
system.mem_ctrls1.rdQLenPdf::4                      0                       # What read queue length does an incoming req see
system.mem_ctrls1.rdQLenPdf::5                      0                       # What read queue length does an incoming req see
system.mem_ctrls1.rdQLenPdf::6                      0                       # What read queue length does an incoming req see
system.mem_ctrls1.rdQLenPdf::7                      0                       # What read queue length does an incoming req see
system.mem_ctrls1.rdQLenPdf::8                      0                       # What read queue length does an incoming req see
system.mem_ctrls1.rdQLenPdf::9                      0                       # What read queue length does an incoming req see
system.mem_ctrls1.rdQLenPdf::10                     0                       # What read queue length does an incoming req see
system.mem_ctrls1.rdQLenPdf::11                     0                       # What read queue length does an incoming req see
system.mem_ctrls1.rdQLenPdf::12                     0                       # What read queue length does an incoming req see
system.mem_ctrls1.rdQLenPdf::13                     0                       # What read queue length does an incoming req see
system.mem_ctrls1.rdQLenPdf::14                     0                       # What read queue length does an incoming req see
system.mem_ctrls1.rdQLenPdf::15                     0                       # What read queue length does an incoming req see
system.mem_ctrls1.rdQLenPdf::16                     0                       # What read queue length does an incoming req see
system.mem_ctrls1.rdQLenPdf::17                     0                       # What read queue length does an incoming req see
system.mem_ctrls1.rdQLenPdf::18                     0                       # What read queue length does an incoming req see
system.mem_ctrls1.rdQLenPdf::19                     0                       # What read queue length does an incoming req see
system.mem_ctrls1.rdQLenPdf::20                     0                       # What read queue length does an incoming req see
system.mem_ctrls1.rdQLenPdf::21                     0                       # What read queue length does an incoming req see
system.mem_ctrls1.rdQLenPdf::22                     0                       # What read queue length does an incoming req see
system.mem_ctrls1.rdQLenPdf::23                     0                       # What read queue length does an incoming req see
system.mem_ctrls1.rdQLenPdf::24                     0                       # What read queue length does an incoming req see
system.mem_ctrls1.rdQLenPdf::25                     0                       # What read queue length does an incoming req see
system.mem_ctrls1.rdQLenPdf::26                     0                       # What read queue length does an incoming req see
system.mem_ctrls1.rdQLenPdf::27                     0                       # What read queue length does an incoming req see
system.mem_ctrls1.rdQLenPdf::28                     0                       # What read queue length does an incoming req see
system.mem_ctrls1.rdQLenPdf::29                     0                       # What read queue length does an incoming req see
system.mem_ctrls1.rdQLenPdf::30                     0                       # What read queue length does an incoming req see
system.mem_ctrls1.rdQLenPdf::31                     0                       # What read queue length does an incoming req see
system.mem_ctrls1.wrQLenPdf::0                      2                       # What write queue length does an incoming req see
system.mem_ctrls1.wrQLenPdf::1                      2                       # What write queue length does an incoming req see
system.mem_ctrls1.wrQLenPdf::2                      2                       # What write queue length does an incoming req see
system.mem_ctrls1.wrQLenPdf::3                      2                       # What write queue length does an incoming req see
system.mem_ctrls1.wrQLenPdf::4                      2                       # What write queue length does an incoming req see
system.mem_ctrls1.wrQLenPdf::5                      2                       # What write queue length does an incoming req see
system.mem_ctrls1.wrQLenPdf::6                      2                       # What write queue length does an incoming req see
system.mem_ctrls1.wrQLenPdf::7                      2                       # What write queue length does an incoming req see
system.mem_ctrls1.wrQLenPdf::8                      2                       # What write queue length does an incoming req see
system.mem_ctrls1.wrQLenPdf::9                      2                       # What write queue length does an incoming req see
system.mem_ctrls1.wrQLenPdf::10                     2                       # What write queue length does an incoming req see
system.mem_ctrls1.wrQLenPdf::11                     2                       # What write queue length does an incoming req see
system.mem_ctrls1.wrQLenPdf::12                     2                       # What write queue length does an incoming req see
system.mem_ctrls1.wrQLenPdf::13                     2                       # What write queue length does an incoming req see
system.mem_ctrls1.wrQLenPdf::14                     2                       # What write queue length does an incoming req see
system.mem_ctrls1.wrQLenPdf::15                    94                       # What write queue length does an incoming req see
system.mem_ctrls1.wrQLenPdf::16                    99                       # What write queue length does an incoming req see
system.mem_ctrls1.wrQLenPdf::17                   136                       # What write queue length does an incoming req see
system.mem_ctrls1.wrQLenPdf::18                   146                       # What write queue length does an incoming req see
system.mem_ctrls1.wrQLenPdf::19                   150                       # What write queue length does an incoming req see
system.mem_ctrls1.wrQLenPdf::20                   149                       # What write queue length does an incoming req see
system.mem_ctrls1.wrQLenPdf::21                   149                       # What write queue length does an incoming req see
system.mem_ctrls1.wrQLenPdf::22                   147                       # What write queue length does an incoming req see
system.mem_ctrls1.wrQLenPdf::23                   148                       # What write queue length does an incoming req see
system.mem_ctrls1.wrQLenPdf::24                   148                       # What write queue length does an incoming req see
system.mem_ctrls1.wrQLenPdf::25                   148                       # What write queue length does an incoming req see
system.mem_ctrls1.wrQLenPdf::26                   147                       # What write queue length does an incoming req see
system.mem_ctrls1.wrQLenPdf::27                   145                       # What write queue length does an incoming req see
system.mem_ctrls1.wrQLenPdf::28                   147                       # What write queue length does an incoming req see
system.mem_ctrls1.wrQLenPdf::29                   145                       # What write queue length does an incoming req see
system.mem_ctrls1.wrQLenPdf::30                   149                       # What write queue length does an incoming req see
system.mem_ctrls1.wrQLenPdf::31                   145                       # What write queue length does an incoming req see
system.mem_ctrls1.wrQLenPdf::32                   145                       # What write queue length does an incoming req see
system.mem_ctrls1.wrQLenPdf::33                     1                       # What write queue length does an incoming req see
system.mem_ctrls1.wrQLenPdf::34                     0                       # What write queue length does an incoming req see
system.mem_ctrls1.wrQLenPdf::35                     0                       # What write queue length does an incoming req see
system.mem_ctrls1.wrQLenPdf::36                     0                       # What write queue length does an incoming req see
system.mem_ctrls1.wrQLenPdf::37                     0                       # What write queue length does an incoming req see
system.mem_ctrls1.wrQLenPdf::38                     0                       # What write queue length does an incoming req see
system.mem_ctrls1.wrQLenPdf::39                     0                       # What write queue length does an incoming req see
system.mem_ctrls1.wrQLenPdf::40                     0                       # What write queue length does an incoming req see
system.mem_ctrls1.wrQLenPdf::41                     0                       # What write queue length does an incoming req see
system.mem_ctrls1.wrQLenPdf::42                     0                       # What write queue length does an incoming req see
system.mem_ctrls1.wrQLenPdf::43                     0                       # What write queue length does an incoming req see
system.mem_ctrls1.wrQLenPdf::44                     0                       # What write queue length does an incoming req see
system.mem_ctrls1.wrQLenPdf::45                     0                       # What write queue length does an incoming req see
system.mem_ctrls1.wrQLenPdf::46                     0                       # What write queue length does an incoming req see
system.mem_ctrls1.wrQLenPdf::47                     0                       # What write queue length does an incoming req see
system.mem_ctrls1.wrQLenPdf::48                     0                       # What write queue length does an incoming req see
system.mem_ctrls1.wrQLenPdf::49                     0                       # What write queue length does an incoming req see
system.mem_ctrls1.wrQLenPdf::50                     0                       # What write queue length does an incoming req see
system.mem_ctrls1.wrQLenPdf::51                     0                       # What write queue length does an incoming req see
system.mem_ctrls1.wrQLenPdf::52                     0                       # What write queue length does an incoming req see
system.mem_ctrls1.wrQLenPdf::53                     0                       # What write queue length does an incoming req see
system.mem_ctrls1.wrQLenPdf::54                     0                       # What write queue length does an incoming req see
system.mem_ctrls1.wrQLenPdf::55                     0                       # What write queue length does an incoming req see
system.mem_ctrls1.wrQLenPdf::56                     0                       # What write queue length does an incoming req see
system.mem_ctrls1.wrQLenPdf::57                     0                       # What write queue length does an incoming req see
system.mem_ctrls1.wrQLenPdf::58                     0                       # What write queue length does an incoming req see
system.mem_ctrls1.wrQLenPdf::59                     0                       # What write queue length does an incoming req see
system.mem_ctrls1.wrQLenPdf::60                     0                       # What write queue length does an incoming req see
system.mem_ctrls1.wrQLenPdf::61                     0                       # What write queue length does an incoming req see
system.mem_ctrls1.wrQLenPdf::62                     0                       # What write queue length does an incoming req see
system.mem_ctrls1.wrQLenPdf::63                     0                       # What write queue length does an incoming req see
system.mem_ctrls1.bytesPerActivate::samples        24439                       # Bytes accessed per row activation
system.mem_ctrls1.bytesPerActivate::mean   129.023937                       # Bytes accessed per row activation
system.mem_ctrls1.bytesPerActivate::gmean   113.775816                       # Bytes accessed per row activation
system.mem_ctrls1.bytesPerActivate::stdev   108.645010                       # Bytes accessed per row activation
system.mem_ctrls1.bytesPerActivate::0-127         5971     24.43%     24.43% # Bytes accessed per row activation
system.mem_ctrls1.bytesPerActivate::128-255        17643     72.19%     96.62% # Bytes accessed per row activation
system.mem_ctrls1.bytesPerActivate::256-383          258      1.06%     97.68% # Bytes accessed per row activation
system.mem_ctrls1.bytesPerActivate::384-511          131      0.54%     98.22% # Bytes accessed per row activation
system.mem_ctrls1.bytesPerActivate::512-639           80      0.33%     98.54% # Bytes accessed per row activation
system.mem_ctrls1.bytesPerActivate::640-767           65      0.27%     98.81% # Bytes accessed per row activation
system.mem_ctrls1.bytesPerActivate::768-895           45      0.18%     98.99% # Bytes accessed per row activation
system.mem_ctrls1.bytesPerActivate::896-1023           22      0.09%     99.08% # Bytes accessed per row activation
system.mem_ctrls1.bytesPerActivate::1024-1151          224      0.92%    100.00% # Bytes accessed per row activation
system.mem_ctrls1.bytesPerActivate::total        24439                       # Bytes accessed per row activation
system.mem_ctrls1.rdPerTurnAround::samples          146                       # Reads before turning the bus around for writes
system.mem_ctrls1.rdPerTurnAround::mean    320.089041                       # Reads before turning the bus around for writes
system.mem_ctrls1.rdPerTurnAround::stdev  3208.209772                       # Reads before turning the bus around for writes
system.mem_ctrls1.rdPerTurnAround::0-2047          145     99.32%     99.32% # Reads before turning the bus around for writes
system.mem_ctrls1.rdPerTurnAround::36864-38911            1      0.68%    100.00% # Reads before turning the bus around for writes
system.mem_ctrls1.rdPerTurnAround::total          146                       # Reads before turning the bus around for writes
system.mem_ctrls1.wrPerTurnAround::samples          146                       # Writes before turning the bus around for reads
system.mem_ctrls1.wrPerTurnAround::mean     17.404110                       # Writes before turning the bus around for reads
system.mem_ctrls1.wrPerTurnAround::gmean    17.370988                       # Writes before turning the bus around for reads
system.mem_ctrls1.wrPerTurnAround::stdev     1.073690                       # Writes before turning the bus around for reads
system.mem_ctrls1.wrPerTurnAround::16              48     32.88%     32.88% # Writes before turning the bus around for reads
system.mem_ctrls1.wrPerTurnAround::17               5      3.42%     36.30% # Writes before turning the bus around for reads
system.mem_ctrls1.wrPerTurnAround::18              82     56.16%     92.47% # Writes before turning the bus around for reads
system.mem_ctrls1.wrPerTurnAround::19               9      6.16%     98.63% # Writes before turning the bus around for reads
system.mem_ctrls1.wrPerTurnAround::20               1      0.68%     99.32% # Writes before turning the bus around for reads
system.mem_ctrls1.wrPerTurnAround::21               1      0.68%    100.00% # Writes before turning the bus around for reads
system.mem_ctrls1.wrPerTurnAround::total          146                       # Writes before turning the bus around for reads
system.mem_ctrls1.totQLat                  9515232771                       # Total ticks spent queuing
system.mem_ctrls1.totMemAccLat            10391476521                       # Total ticks spent from burst creation until serviced by the DRAM
system.mem_ctrls1.totBusLat                 233665000                       # Total ticks spent in databus transfers
system.mem_ctrls1.avgQLat                   203608.43                       # Average queueing delay per DRAM burst
system.mem_ctrls1.avgBusLat                   5000.00                       # Average bus latency per DRAM burst
system.mem_ctrls1.avgMemAccLat              222358.43                       # Average memory access latency per DRAM burst
system.mem_ctrls1.avgRdBW                        2.95                       # Average DRAM read bandwidth in MiByte/s
system.mem_ctrls1.avgWrBW                        0.16                       # Average achieved write bandwidth in MiByte/s
system.mem_ctrls1.avgRdBWSys                     2.96                       # Average system read bandwidth in MiByte/s
system.mem_ctrls1.avgWrBWSys                     0.16                       # Average system write bandwidth in MiByte/s
system.mem_ctrls1.peakBW                     12800.00                       # Theoretical peak bandwidth in MiByte/s
system.mem_ctrls1.busUtil                        0.02                       # Data bus utilization in percentage
system.mem_ctrls1.busUtilRead                    0.02                       # Data bus utilization in percentage for reads
system.mem_ctrls1.busUtilWrite                   0.00                       # Data bus utilization in percentage for writes
system.mem_ctrls1.avgRdQLen                      1.00                       # Average read queue length when enqueuing
system.mem_ctrls1.avgWrQLen                      9.26                       # Average write queue length when enqueuing
system.mem_ctrls1.readRowHits                   23471                       # Number of row buffer hits during reads
system.mem_ctrls1.writeRowHits                   1361                       # Number of row buffer hits during writes
system.mem_ctrls1.readRowHitRate                50.22                       # Row buffer hit rate for reads
system.mem_ctrls1.writeRowHitRate               53.00                       # Row buffer hit rate for writes
system.mem_ctrls1.avgGap                  20476354.83                       # Average gap between requests
system.mem_ctrls1.pageHitRate                   50.37                       # Row buffer hit rate, read and write combined
system.mem_ctrls1_0.actEnergy                91499100                       # Energy for activate commands per rank (pJ)
system.mem_ctrls1_0.preEnergy                48625335                       # Energy for precharge commands per rank (pJ)
system.mem_ctrls1_0.readEnergy              167161680                       # Energy for read commands per rank (pJ)
system.mem_ctrls1_0.writeEnergy               6697260                       # Energy for write commands per rank (pJ)
system.mem_ctrls1_0.refreshEnergy        15950522640.000004                       # Energy for refresh commands per rank (pJ)
system.mem_ctrls1_0.actBackEnergy          3438933120                       # Energy for active background per rank (pJ)
system.mem_ctrls1_0.preBackEnergy          1051894080                       # Energy for precharge background per rank (pJ)
system.mem_ctrls1_0.actPowerDownEnergy    31292243040                       # Energy for active power-down per rank (pJ)
system.mem_ctrls1_0.prePowerDownEnergy    24737555040                       # Energy for precharge power-down per rank (pJ)
system.mem_ctrls1_0.selfRefreshEnergy    213148970130                       # Energy for self refresh per rank (pJ)
system.mem_ctrls1_0.totalEnergy          289934635305                       # Total energy per rank (pJ)
system.mem_ctrls1_0.averagePower           286.269901                       # Core power per rank (mW)
system.mem_ctrls1_0.totalIdleTime        1002519803992                       # Total Idle time Per DRAM Rank
system.mem_ctrls1_0.memoryStateTime::IDLE   2199092106                       # Time in different power states
system.mem_ctrls1_0.memoryStateTime::REF   6795884000                       # Time in different power states
system.mem_ctrls1_0.memoryStateTime::SREF 869475554008                       # Time in different power states
system.mem_ctrls1_0.memoryStateTime::PRE_PDN  64420663062                       # Time in different power states
system.mem_ctrls1_0.memoryStateTime::ACT   1286891415                       # Time in different power states
system.mem_ctrls1_0.memoryStateTime::ACT_PDN  68623586922                       # Time in different power states
system.mem_ctrls1_1.actEnergy                83016780                       # Energy for activate commands per rank (pJ)
system.mem_ctrls1_1.preEnergy                44120670                       # Energy for precharge commands per rank (pJ)
system.mem_ctrls1_1.readEnergy              166511940                       # Energy for read commands per rank (pJ)
system.mem_ctrls1_1.writeEnergy               6566760                       # Energy for write commands per rank (pJ)
system.mem_ctrls1_1.refreshEnergy        17056260000.000004                       # Energy for refresh commands per rank (pJ)
system.mem_ctrls1_1.actBackEnergy          3624182550                       # Energy for active background per rank (pJ)
system.mem_ctrls1_1.preBackEnergy          1146372960                       # Energy for precharge background per rank (pJ)
system.mem_ctrls1_1.actPowerDownEnergy    32538111990                       # Energy for active power-down per rank (pJ)
system.mem_ctrls1_1.prePowerDownEnergy    26729974080                       # Energy for precharge power-down per rank (pJ)
system.mem_ctrls1_1.selfRefreshEnergy    211505008080                       # Energy for self refresh per rank (pJ)
system.mem_ctrls1_1.totalEnergy          292900617780                       # Total energy per rank (pJ)
system.mem_ctrls1_1.averagePower           289.198394                       # Core power per rank (mW)
system.mem_ctrls1_1.totalIdleTime        1001867296979                       # Total Idle time Per DRAM Rank
system.mem_ctrls1_1.memoryStateTime::IDLE   2409654349                       # Time in different power states
system.mem_ctrls1_1.memoryStateTime::REF   7268130000                       # Time in different power states
system.mem_ctrls1_1.memoryStateTime::SREF 860902588022                       # Time in different power states
system.mem_ctrls1_1.memoryStateTime::PRE_PDN  69609331355                       # Time in different power states
system.mem_ctrls1_1.memoryStateTime::ACT   1256590185                       # Time in different power states
system.mem_ctrls1_1.memoryStateTime::ACT_PDN  71355377602                       # Time in different power states
system.pwrStateResidencyTicks::UNDEFINED 310860683555922                       # Cumulative time (in ticks) in various power states
system.cpu.branchPred.lookups                       1                       # Number of BP lookups
system.cpu.branchPred.condPredicted                 0                       # Number of conditional branches predicted
system.cpu.branchPred.condIncorrect                 1                       # Number of conditional branches incorrect
system.cpu.branchPred.BTBLookups                    0                       # Number of BTB lookups
system.cpu.branchPred.BTBHits                       0                       # Number of BTB hits
system.cpu.branchPred.BTBCorrect                    0                       # Number of correct BTB predictions (this stat may not work properly.
system.cpu.branchPred.BTBHitPct                   nan                       # BTB Hit Percentage
system.cpu.branchPred.usedRAS                       1                       # Number of times the RAS was used to get a target.
system.cpu.branchPred.RASInCorrect                  1                       # Number of incorrect RAS predictions.
system.cpu.branchPred.indirectLookups               0                       # Number of indirect predictor lookups.
system.cpu.branchPred.indirectHits                  0                       # Number of indirect target hits.
system.cpu.branchPred.indirectMisses                0                       # Number of indirect misses.
system.cpu.branchPredindirectMispredicted            0                       # Number of mispredicted indirect branches.
system.cpu_voltage_domain.voltage                   1                       # Voltage in Volts
system.cpu_clk_domain.clock                       333                       # Clock period in ticks
system.cpu.dtb.fetch_hits                           0                       # ITB hits
system.cpu.dtb.fetch_misses                         0                       # ITB misses
system.cpu.dtb.fetch_acv                            0                       # ITB acv
system.cpu.dtb.fetch_accesses                       0                       # ITB accesses
system.cpu.dtb.read_hits                            0                       # DTB read hits
system.cpu.dtb.read_misses                          0                       # DTB read misses
system.cpu.dtb.read_acv                             0                       # DTB read access violations
system.cpu.dtb.read_accesses                        0                       # DTB read accesses
system.cpu.dtb.write_hits                           0                       # DTB write hits
system.cpu.dtb.write_misses                         0                       # DTB write misses
system.cpu.dtb.write_acv                            0                       # DTB write access violations
system.cpu.dtb.write_accesses                       0                       # DTB write accesses
system.cpu.dtb.data_hits                            0                       # DTB hits
system.cpu.dtb.data_misses                          0                       # DTB misses
system.cpu.dtb.data_acv                             0                       # DTB access violations
system.cpu.dtb.data_accesses                        0                       # DTB accesses
system.cpu.itb.fetch_hits                           4                       # ITB hits
system.cpu.itb.fetch_misses                         1                       # ITB misses
system.cpu.itb.fetch_acv                            0                       # ITB acv
system.cpu.itb.fetch_accesses                       5                       # ITB accesses
system.cpu.itb.read_hits                            0                       # DTB read hits
system.cpu.itb.read_misses                          0                       # DTB read misses
system.cpu.itb.read_acv                             0                       # DTB read access violations
system.cpu.itb.read_accesses                        0                       # DTB read accesses
system.cpu.itb.write_hits                           0                       # DTB write hits
system.cpu.itb.write_misses                         0                       # DTB write misses
system.cpu.itb.write_acv                            0                       # DTB write access violations
system.cpu.itb.write_accesses                       0                       # DTB write accesses
system.cpu.itb.data_hits                            0                       # DTB hits
system.cpu.itb.data_misses                          0                       # DTB misses
system.cpu.itb.data_acv                             0                       # DTB access violations
system.cpu.itb.data_accesses                        0                       # DTB accesses
system.cpu.workload.num_syscalls                    0                       # Number of system calls
system.cpu.pwrStateResidencyTicks::ON    1012801671513                       # Cumulative time (in ticks) in various power states
system.cpu.numCycles                              973                       # number of cpu cycles simulated
system.cpu.numWorkItemsStarted                      0                       # number of work items this cpu started
system.cpu.numWorkItemsCompleted                    0                       # number of work items this cpu completed
system.cpu.fetch.icacheStallCycles                 27                       # Number of cycles fetch is stalled on an Icache miss
system.cpu.fetch.Insts                              7                       # Number of instructions fetch has processed
system.cpu.fetch.Branches                           1                       # Number of branches that fetch encountered
system.cpu.fetch.predictedBranches                  1                       # Number of branches that fetch has predicted taken
system.cpu.fetch.Cycles                             2                       # Number of cycles fetch has run and was not squashing or blocked
system.cpu.fetch.SquashCycles                       5                       # Number of cycles fetch has spent squashing
system.cpu.fetch.PendingDrainCycles                 3                       # Number of cycles fetch has spent waiting on pipes to drain
system.cpu.fetch.PendingTrapStallCycles             6                       # Number of stall cycles due to pending traps
system.cpu.fetch.CacheLines                         4                       # Number of cache lines fetched
system.cpu.fetch.IcacheSquashes                     2                       # Number of outstanding Icache misses that were squashed
system.cpu.fetch.rateDist::samples                 40                       # Number of instructions fetched each cycle (Total)
system.cpu.fetch.rateDist::mean              0.175000                       # Number of instructions fetched each cycle (Total)
system.cpu.fetch.rateDist::stdev             0.957762                       # Number of instructions fetched each cycle (Total)
system.cpu.fetch.rateDist::underflows               0      0.00%      0.00% # Number of instructions fetched each cycle (Total)
system.cpu.fetch.rateDist::0                       38     95.00%     95.00% # Number of instructions fetched each cycle (Total)
system.cpu.fetch.rateDist::1                        1      2.50%     97.50% # Number of instructions fetched each cycle (Total)
system.cpu.fetch.rateDist::2                        0      0.00%     97.50% # Number of instructions fetched each cycle (Total)
system.cpu.fetch.rateDist::3                        0      0.00%     97.50% # Number of instructions fetched each cycle (Total)
system.cpu.fetch.rateDist::4                        0      0.00%     97.50% # Number of instructions fetched each cycle (Total)
system.cpu.fetch.rateDist::5                        0      0.00%     97.50% # Number of instructions fetched each cycle (Total)
system.cpu.fetch.rateDist::6                        1      2.50%    100.00% # Number of instructions fetched each cycle (Total)
system.cpu.fetch.rateDist::7                        0      0.00%    100.00% # Number of instructions fetched each cycle (Total)
system.cpu.fetch.rateDist::8                        0      0.00%    100.00% # Number of instructions fetched each cycle (Total)
system.cpu.fetch.rateDist::overflows                0      0.00%    100.00% # Number of instructions fetched each cycle (Total)
system.cpu.fetch.rateDist::min_value                0                       # Number of instructions fetched each cycle (Total)
system.cpu.fetch.rateDist::max_value                6                       # Number of instructions fetched each cycle (Total)
system.cpu.fetch.rateDist::total                   40                       # Number of instructions fetched each cycle (Total)
system.cpu.fetch.branchRate                  0.001028                       # Number of branch fetches per cycle
system.cpu.fetch.rate                        0.007194                       # Number of inst fetches per cycle
system.cpu.decode.IdleCycles                       35                       # Number of cycles decode is idle
system.cpu.decode.RunCycles                         2                       # Number of cycles decode is running
[...]
system.switch_cpus_1.iq.int_inst_queue_writes     89896063                       # Number of integer instruction queue writes
system.switch_cpus_1.iq.int_inst_queue_wakeup_accesses     83816214                       # Number of integer instruction queue wakeup accesses
system.switch_cpus_1.iq.fp_inst_queue_reads    266739337                       # Number of floating instruction queue reads
system.switch_cpus_1.iq.fp_inst_queue_writes    142382779                       # Number of floating instruction queue writes
system.switch_cpus_1.iq.fp_inst_queue_wakeup_accesses    125822052                       # Number of floating instruction queue wakeup accesses
system.switch_cpus_1.iq.int_alu_accesses     84870158                       # Number of integer alu accesses
system.switch_cpus_1.iq.fp_alu_accesses     135828714                       # Number of floating point alu accesses
system.switch_cpus_1.iew.lsq.thread0.forwLoads      4027330                       # Number of loads that had data forwarded from stores
system.switch_cpus_1.iew.lsq.thread0.invAddrLoads            0                       # Number of loads ignored due to an invalid address
system.switch_cpus_1.iew.lsq.thread0.squashedLoads      3319062                       # Number of loads squashed
system.switch_cpus_1.iew.lsq.thread0.ignoredResponses         4774                       # Number of memory responses ignored because the instruction is squashed
system.switch_cpus_1.iew.lsq.thread0.memOrderViolation         5857                       # Number of memory ordering violations
system.switch_cpus_1.iew.lsq.thread0.squashedStores       558294                       # Number of stores squashed
system.switch_cpus_1.iew.lsq.thread0.invAddrSwpfs            0                       # Number of software prefetches ignored due to an invalid address
system.switch_cpus_1.iew.lsq.thread0.blockedLoads            0                       # Number of blocked loads due to partial load-store forwarding
system.switch_cpus_1.iew.lsq.thread0.rescheduledLoads            3                       # Number of loads that were rescheduled
system.switch_cpus_1.iew.lsq.thread0.cacheBlocked      5333433                       # Number of times an access to memory failed due to the cache being blocked
system.switch_cpus_1.iew.iewIdleCycles              0                       # Number of cycles IEW is idle
system.switch_cpus_1.iew.iewSquashCycles       223425                       # Number of cycles IEW is squashing
system.switch_cpus_1.iew.iewBlockCycles      16915024                       # Number of cycles IEW is blocking
system.switch_cpus_1.iew.iewUnblockCycles      3220423                       # Number of cycles IEW is unblocking
system.switch_cpus_1.iew.iewDispatchedInsts    222180434                       # Number of instructions dispatched to IQ
system.switch_cpus_1.iew.iewDispSquashedInsts         2380                       # Number of squashed instructions skipped by dispatch
system.switch_cpus_1.iew.iewDispLoadInsts     33490881                       # Number of dispatched load instructions
system.switch_cpus_1.iew.iewDispStoreInsts     13365086                       # Number of dispatched store instructions
system.switch_cpus_1.iew.iewDispNonSpecInsts          891                       # Number of dispatched non-speculative instructions
system.switch_cpus_1.iew.iewIQFullEvents       968480                       # Number of times the IQ has become full, causing a stall
system.switch_cpus_1.iew.iewLSQFullEvents      2017113                       # Number of times the LSQ has become full, causing a stall
system.switch_cpus_1.iew.memOrderViolationEvents         5857                       # Number of memory order violations
system.switch_cpus_1.iew.predictedTakenIncorrect       117239                       # Number of branches that were predicted taken incorrectly
system.switch_cpus_1.iew.predictedNotTakenIncorrect       103606                       # Number of branches that were predicted not taken incorrectly
system.switch_cpus_1.iew.branchMispredicts       220845                       # Number of branch mispredicts detected at execute
system.switch_cpus_1.iew.iewExecutedInsts    214707502                       # Number of executed instructions
system.switch_cpus_1.iew.iewExecLoadInsts     37561700                       # Number of load instructions executed
system.switch_cpus_1.iew.iewExecSquashedInsts       264764                       # Number of squashed instructions skipped in execute
system.switch_cpus_1.iew.exec_swp                   0                       # number of swp insts executed
system.switch_cpus_1.iew.exec_nop             6043882                       # number of nop insts executed
system.switch_cpus_1.iew.exec_refs           50612279                       # number of memory reference insts executed
system.switch_cpus_1.iew.exec_branches       17889216                       # Number of branches executed
system.switch_cpus_1.iew.exec_stores         13050579                       # Number of stores executed
system.switch_cpus_1.iew.exec_rate           1.683432                       # Inst execution rate
system.switch_cpus_1.iew.wb_sent            209764582                       # cumulative count of insts sent to commit
system.switch_cpus_1.iew.wb_count           209638266                       # cumulative count of insts written-back
system.switch_cpus_1.iew.wb_producers       157501015                       # num instructions producing a value
system.switch_cpus_1.iew.wb_consumers       227005063                       # num instructions consuming a value
system.switch_cpus_1.iew.wb_rate             1.643687                       # insts written-back per cycle
system.switch_cpus_1.iew.wb_fanout           0.693822                       # average fanout of values written-back
system.switch_cpus_1.commit.commitSquashedInsts     16558890                       # The number of squashed insts skipped by commit
system.switch_cpus_1.commit.commitNonSpecStalls         1060                       # The number of times commit has been forced to stall to communicate backwards
system.switch_cpus_1.commit.branchMispredicts       212733                       # The number of times a branch was mispredicted
system.switch_cpus_1.commit.committed_per_cycle::samples    125139441                       # Number of insts commited each cycle
system.switch_cpus_1.commit.committed_per_cycle::mean     1.642870                       # Number of insts commited each cycle
system.switch_cpus_1.commit.committed_per_cycle::stdev     2.786664                       # Number of insts commited each cycle
system.switch_cpus_1.commit.committed_per_cycle::underflows            0      0.00%      0.00% # Number of insts commited each cycle
system.switch_cpus_1.commit.committed_per_cycle::0     72695156     58.09%     58.09% # Number of insts commited each cycle
system.switch_cpus_1.commit.committed_per_cycle::1     22066057     17.63%     75.72% # Number of insts commited each cycle
system.switch_cpus_1.commit.committed_per_cycle::2      4729328      3.78%     79.50% # Number of insts commited each cycle
system.switch_cpus_1.commit.committed_per_cycle::3      2912683      2.33%     81.83% # Number of insts commited each cycle
system.switch_cpus_1.commit.committed_per_cycle::4      2153909      1.72%     83.55% # Number of insts commited each cycle
system.switch_cpus_1.commit.committed_per_cycle::5       913933      0.73%     84.28% # Number of insts commited each cycle
system.switch_cpus_1.commit.committed_per_cycle::6      2174239      1.74%     86.02% # Number of insts commited each cycle
system.switch_cpus_1.commit.committed_per_cycle::7       858807      0.69%     86.71% # Number of insts commited each cycle
system.switch_cpus_1.commit.committed_per_cycle::8     16635329     13.29%    100.00% # Number of insts commited each cycle
system.switch_cpus_1.commit.committed_per_cycle::overflows            0      0.00%    100.00% # Number of insts commited each cycle
system.switch_cpus_1.commit.committed_per_cycle::min_value            0                       # Number of insts commited each cycle
system.switch_cpus_1.commit.committed_per_cycle::max_value            8                       # Number of insts commited each cycle
system.switch_cpus_1.commit.committed_per_cycle::total    125139441                       # Number of insts commited each cycle
system.switch_cpus_1.commit.committedInsts    205587778                       # Number of instructions committed
system.switch_cpus_1.commit.committedOps    205587778                       # Number of ops (including micro ops) committed
system.switch_cpus_1.commit.swp_count               0                       # Number of s/w prefetches committed
system.switch_cpus_1.commit.refs             42978589                       # Number of memory references committed
system.switch_cpus_1.commit.loads            30171801                       # Number of loads committed
system.switch_cpus_1.commit.membars               530                       # Number of memory barriers committed
system.switch_cpus_1.commit.branches         16841234                       # Number of branches committed
system.switch_cpus_1.commit.fp_insts        121009933                       # Number of committed floating point instructions.
system.switch_cpus_1.commit.int_insts       111742899                       # Number of committed integer instructions.
system.switch_cpus_1.commit.function_calls      1810278                       # Number of function calls committed.
system.switch_cpus_1.commit.op_class_0::No_OpClass      5587774      2.72%      2.72% # Class of committed instruction
system.switch_cpus_1.commit.op_class_0::IntAlu     66796729     32.49%     35.21% # Class of committed instruction
system.switch_cpus_1.commit.op_class_0::IntMult       802505      0.39%     35.60% # Class of committed instruction
system.switch_cpus_1.commit.op_class_0::IntDiv            0      0.00%     35.60% # Class of committed instruction
system.switch_cpus_1.commit.op_class_0::FloatAdd     57123504     27.79%     63.38% # Class of committed instruction
system.switch_cpus_1.commit.op_class_0::FloatCmp      4994353      2.43%     65.81% # Class of committed instruction
system.switch_cpus_1.commit.op_class_0::FloatCvt      3095320      1.51%     67.32% # Class of committed instruction
system.switch_cpus_1.commit.op_class_0::FloatMult     24208317     11.78%     79.09% # Class of committed instruction
system.switch_cpus_1.commit.op_class_0::FloatMultAcc            0      0.00%     79.09% # Class of committed instruction
system.switch_cpus_1.commit.op_class_0::FloatDiv          116      0.00%     79.09% # Class of committed instruction
system.switch_cpus_1.commit.op_class_0::FloatMisc            0      0.00%     79.09% # Class of committed instruction
system.switch_cpus_1.commit.op_class_0::FloatSqrt           41      0.00%     79.09% # Class of committed instruction
system.switch_cpus_1.commit.op_class_0::SimdAdd            0      0.00%     79.09% # Class of committed instruction
system.switch_cpus_1.commit.op_class_0::SimdAddAcc            0      0.00%     79.09% # Class of committed instruction
system.switch_cpus_1.commit.op_class_0::SimdAlu            0      0.00%     79.09% # Class of committed instruction
system.switch_cpus_1.commit.op_class_0::SimdCmp            0      0.00%     79.09% # Class of committed instruction
system.switch_cpus_1.commit.op_class_0::SimdCvt            0      0.00%     79.09% # Class of committed instruction
system.switch_cpus_1.commit.op_class_0::SimdMisc            0      0.00%     79.09% # Class of committed instruction
system.switch_cpus_1.commit.op_class_0::SimdMult            0      0.00%     79.09% # Class of committed instruction
system.switch_cpus_1.commit.op_class_0::SimdMultAcc            0      0.00%     79.09% # Class of committed instruction
system.switch_cpus_1.commit.op_class_0::SimdShift            0      0.00%     79.09% # Class of committed instruction
system.switch_cpus_1.commit.op_class_0::SimdShiftAcc            0      0.00%     79.09% # Class of committed instruction
system.switch_cpus_1.commit.op_class_0::SimdSqrt            0      0.00%     79.09% # Class of committed instruction
system.switch_cpus_1.commit.op_class_0::SimdFloatAdd            0      0.00%     79.09% # Class of committed instruction
system.switch_cpus_1.commit.op_class_0::SimdFloatAlu            0      0.00%     79.09% # Class of committed instruction
system.switch_cpus_1.commit.op_class_0::SimdFloatCmp            0      0.00%     79.09% # Class of committed instruction
system.switch_cpus_1.commit.op_class_0::SimdFloatCvt            0      0.00%     79.09% # Class of committed instruction
system.switch_cpus_1.commit.op_class_0::SimdFloatDiv            0      0.00%     79.09% # Class of committed instruction
system.switch_cpus_1.commit.op_class_0::SimdFloatMisc            0      0.00%     79.09% # Class of committed instruction
system.switch_cpus_1.commit.op_class_0::SimdFloatMult            0      0.00%     79.09% # Class of committed instruction
system.switch_cpus_1.commit.op_class_0::SimdFloatMultAcc            0      0.00%     79.09% # Class of committed instruction
system.switch_cpus_1.commit.op_class_0::SimdFloatSqrt            0      0.00%     79.09% # Class of committed instruction
system.switch_cpus_1.commit.op_class_0::MemRead      6947129      3.38%     82.47% # Class of committed instruction
system.switch_cpus_1.commit.op_class_0::MemWrite      4443708      2.16%     84.64% # Class of committed instruction
system.switch_cpus_1.commit.op_class_0::FloatMemRead     23225202     11.30%     95.93% # Class of committed instruction
system.switch_cpus_1.commit.op_class_0::FloatMemWrite      8363080      4.07%    100.00% # Class of committed instruction
system.switch_cpus_1.commit.op_class_0::IprAccess            0      0.00%    100.00% # Class of committed instruction
system.switch_cpus_1.commit.op_class_0::InstPrefetch            0      0.00%    100.00% # Class of committed instruction
system.switch_cpus_1.commit.op_class_0::total    205587778                       # Class of committed instruction
system.switch_cpus_1.commit.bw_lim_events     16635329                       # number cycles where commit BW limit reached
system.switch_cpus_1.rob.rob_reads          330583414                       # The number of ROB reads
system.switch_cpus_1.rob.rob_writes         446520632                       # The number of ROB writes
system.switch_cpus_1.timesIdled                  1533                       # Number of times that the entire CPU went into an idle state and unscheduled itself
system.switch_cpus_1.idleCycles                190203                       # Total number of cycles that the CPU has spent unscheduled due to idling
system.switch_cpus_1.committedInsts         200000004                       # Number of Instructions Simulated
system.switch_cpus_1.committedOps           200000004                       # Number of Ops (including micro ops) Simulated
system.switch_cpus_1.cpi                     0.637708                       # CPI: Cycles Per Instruction
system.switch_cpus_1.cpi_total               0.637708                       # CPI: Total CPI of All Threads
system.switch_cpus_1.ipc                     1.568117                       # IPC: Instructions Per Cycle
system.switch_cpus_1.ipc_total               1.568117                       # IPC: Total IPC of All Threads
system.switch_cpus_1.int_regfile_reads      143684151                       # number of integer regfile reads
system.switch_cpus_1.int_regfile_writes      69424756                       # number of integer regfile writes
system.switch_cpus_1.fp_regfile_reads       186913871                       # number of floating regfile reads
system.switch_cpus_1.fp_regfile_writes      111269503                       # number of floating regfile writes
system.switch_cpus_1.misc_regfile_reads      56347452                       # number of misc regfile reads
system.switch_cpus_1.misc_regfile_writes         1060                       # number of misc regfile writes
system.tol3bus.snoop_filter.tot_requests      6318599                       # Total number of requests made to the snoop filter.
system.tol3bus.snoop_filter.hit_single_requests      3157080                       # Number of requests hitting in the snoop filter with a single holder of the requested data.
system.tol3bus.snoop_filter.hit_multi_requests            0                       # Number of requests hitting in the snoop filter with multiple (>1) holders of the requested data.
system.tol3bus.snoop_filter.tot_snoops            185                       # Total number of snoops made to the snoop filter.
system.tol3bus.snoop_filter.hit_single_snoops          185                       # Number of snoops hitting in the snoop filter with a single holder of the requested data.
system.tol3bus.snoop_filter.hit_multi_snoops            0                       # Number of snoops hitting in the snoop filter with multiple (>1) holders of the requested data.
system.tol3bus.pwrStateResidencyTicks::UNDEFINED 310860683555922                       # Cumulative time (in ticks) in various power states
system.tol3bus.trans_dist::ReadResp           2177104                       # Transaction distribution
system.tol3bus.trans_dist::WritebackDirty      2354803                       # Transaction distribution
system.tol3bus.trans_dist::CleanEvict          828612                       # Transaction distribution
system.tol3bus.trans_dist::ReadExReq           984415                       # Transaction distribution
system.tol3bus.trans_dist::ReadExResp          984415                       # Transaction distribution
system.tol3bus.trans_dist::ReadSharedReq      2177104                       # Transaction distribution
system.tol3bus.pkt_count_system.cpu.l2.mem_side::system.l3.cpu_side      9480118                       # Packet count per connected master and slave (bytes)
system.tol3bus.pkt_size_system.cpu.l2.mem_side::system.l3.cpu_side    352719680                       # Cumulative packet size per connected master and slave (bytes)
system.tol3bus.snoops                           26335                       # Total snoops (count)
system.tol3bus.snoopTraffic                    324928                       # Total snoop traffic (bytes)
system.tol3bus.snoop_fanout::samples          3187854                       # Request fanout histogram
system.tol3bus.snoop_fanout::mean            0.000058                       # Request fanout histogram
system.tol3bus.snoop_fanout::stdev           0.007618                       # Request fanout histogram
system.tol3bus.snoop_fanout::underflows             0      0.00%      0.00% # Request fanout histogram
system.tol3bus.snoop_fanout::0                3187669     99.99%     99.99% # Request fanout histogram
system.tol3bus.snoop_fanout::1                    185      0.01%    100.00% # Request fanout histogram
system.tol3bus.snoop_fanout::overflows              0      0.00%    100.00% # Request fanout histogram
system.tol3bus.snoop_fanout::min_value              0                       # Request fanout histogram
system.tol3bus.snoop_fanout::max_value              1                       # Request fanout histogram
system.tol3bus.snoop_fanout::total            3187854                       # Request fanout histogram
system.tol3bus.reqLayer0.occupancy         2886552225                       # Layer occupancy (ticks)
system.tol3bus.reqLayer0.utilization              0.3                       # Layer utilization (%)
system.tol3bus.respLayer0.occupancy        2105571654                       # Layer occupancy (ticks)
system.tol3bus.respLayer0.utilization             0.2                       # Layer utilization (%)

---------- End Simulation Statistics   ----------
