
---------- Begin Simulation Statistics ----------
sim_seconds                                  1.090666                       # Number of seconds simulated
sim_ticks                                1090666272636                       # Number of ticks simulated
final_tick                               31102080433686                       # Number of ticks from beginning of simulation (restored from checkpoints and never reset)
sim_freq                                 1000000000000                       # Frequency of simulated ticks
host_inst_rate                                 651006                       # Simulator instruction rate (inst/s)
host_op_rate                                   651006                       # Simulator op (including micro ops) rate (op/s)
host_tick_rate                              591691967                       # Simulator tick rate (ticks/s)
host_mem_usage                                2425256                       # Number of bytes of host memory used
host_seconds                                  1843.30                       # Real time elapsed on the host
sim_insts                                  1200000007                       # Number of instructions simulated
sim_ops                                    1200000007                       # Number of ops (including micro ops) simulated
system.voltage_domain.voltage                       1                       # Voltage in Volts
system.clk_domain.clock                          1000                       # Clock period in ticks
system.mem_ctrls0.pwrStateResidencyTicks::UNDEFINED 31102080433686                       # Cumulative time (in ticks) in various power states
system.mem_ctrls0.bytes_read::cpu.inst             64                       # Number of bytes read from this memory
system.mem_ctrls0.bytes_read::switch_cpus.inst       138368                       # Number of bytes read from this memory
system.mem_ctrls0.bytes_read::switch_cpus.data      3615040                       # Number of bytes read from this memory
system.mem_ctrls0.bytes_read::switch_cpus_1.inst       100800                       # Number of bytes read from this memory
system.mem_ctrls0.bytes_read::switch_cpus_1.data      1536896                       # Number of bytes read from this memory
system.mem_ctrls0.bytes_read::total           5391168                       # Number of bytes read from this memory
system.mem_ctrls0.bytes_inst_read::cpu.inst           64                       # Number of instructions bytes read from this memory
system.mem_ctrls0.bytes_inst_read::switch_cpus.inst       138368                       # Number of instructions bytes read from this memory
system.mem_ctrls0.bytes_inst_read::switch_cpus_1.inst       100800                       # Number of instructions bytes read from this memory
system.mem_ctrls0.bytes_inst_read::total       239232                       # Number of instructions bytes read from this memory
system.mem_ctrls0.bytes_written::writebacks       699648                       # Number of bytes written to this memory
system.mem_ctrls0.bytes_written::total         699648                       # Number of bytes written to this memory
system.mem_ctrls0.num_reads::cpu.inst               1                       # Number of read requests responded to by this memory
system.mem_ctrls0.num_reads::switch_cpus.inst         2162                       # Number of read requests responded to by this memory
system.mem_ctrls0.num_reads::switch_cpus.data        56485                       # Number of read requests responded to by this memory
system.mem_ctrls0.num_reads::switch_cpus_1.inst         1575                       # Number of read requests responded to by this memory
system.mem_ctrls0.num_reads::switch_cpus_1.data        24014                       # Number of read requests responded to by this memory
system.mem_ctrls0.num_reads::total              84237                       # Number of read requests responded to by this memory
system.mem_ctrls0.num_writes::writebacks        10932                       # Number of write requests responded to by this memory
system.mem_ctrls0.num_writes::total             10932                       # Number of write requests responded to by this memory
system.mem_ctrls0.bw_read::cpu.inst                59                       # Total read bandwidth from this memory (bytes/s)
system.mem_ctrls0.bw_read::switch_cpus.inst       126866                       # Total read bandwidth from this memory (bytes/s)
system.mem_ctrls0.bw_read::switch_cpus.data      3314524                       # Total read bandwidth from this memory (bytes/s)
system.mem_ctrls0.bw_read::switch_cpus_1.inst        92421                       # Total read bandwidth from this memory (bytes/s)
system.mem_ctrls0.bw_read::switch_cpus_1.data      1409135                       # Total read bandwidth from this memory (bytes/s)
system.mem_ctrls0.bw_read::total              4943004                       # Total read bandwidth from this memory (bytes/s)
system.mem_ctrls0.bw_inst_read::cpu.inst           59                       # Instruction read bandwidth from this memory (bytes/s)
system.mem_ctrls0.bw_inst_read::switch_cpus.inst       126866                       # Instruction read bandwidth from this memory (bytes/s)
system.mem_ctrls0.bw_inst_read::switch_cpus_1.inst        92421                       # Instruction read bandwidth from this memory (bytes/s)
system.mem_ctrls0.bw_inst_read::total          219345                       # Instruction read bandwidth from this memory (bytes/s)
system.mem_ctrls0.bw_write::writebacks         641487                       # Write bandwidth from this memory (bytes/s)
system.mem_ctrls0.bw_write::total              641487                       # Write bandwidth from this memory (bytes/s)
system.mem_ctrls0.bw_total::writebacks         641487                       # Total bandwidth to/from this memory (bytes/s)
system.mem_ctrls0.bw_total::cpu.inst               59                       # Total bandwidth to/from this memory (bytes/s)
system.mem_ctrls0.bw_total::switch_cpus.inst       126866                       # Total bandwidth to/from this memory (bytes/s)
system.mem_ctrls0.bw_total::switch_cpus.data      3314524                       # Total bandwidth to/from this memory (bytes/s)
system.mem_ctrls0.bw_total::switch_cpus_1.inst        92421                       # Total bandwidth to/from this memory (bytes/s)
system.mem_ctrls0.bw_total::switch_cpus_1.data      1409135                       # Total bandwidth to/from this memory (bytes/s)
system.mem_ctrls0.bw_total::total             5584491                       # Total bandwidth to/from this memory (bytes/s)
system.mem_ctrls0.readReqs                      84237                       # Number of read requests accepted
system.mem_ctrls0.writeReqs                     10932                       # Number of write requests accepted
system.mem_ctrls0.readBursts                    84237                       # Number of DRAM read bursts, including those serviced by the write queue
system.mem_ctrls0.writeBursts                   10932                       # Number of DRAM write bursts, including those merged in the write queue
system.mem_ctrls0.bytesReadDRAM               5388032                       # Total number of bytes read from DRAM
system.mem_ctrls0.bytesReadWrQ                   3136                       # Total number of bytes read from write queue
system.mem_ctrls0.bytesWritten                 698240                       # Total number of bytes written to DRAM
system.mem_ctrls0.bytesReadSys                5391168                       # Total read bytes from the system interface side
system.mem_ctrls0.bytesWrittenSys              699648                       # Total written bytes from the system interface side
system.mem_ctrls0.servicedByWrQ                    49                       # Number of DRAM read bursts serviced by the write queue
system.mem_ctrls0.mergedWrBursts                    0                       # Number of DRAM write bursts merged with an existing one
system.mem_ctrls0.neitherReadNorWriteReqs            0                       # Number of requests that are neither read nor write
system.mem_ctrls0.perBankRdBursts::0             5275                       # Per bank write bursts
system.mem_ctrls0.perBankRdBursts::1             5345                       # Per bank write bursts
system.mem_ctrls0.perBankRdBursts::2             5868                       # Per bank write bursts
system.mem_ctrls0.perBankRdBursts::3             5596                       # Per bank write bursts
system.mem_ctrls0.perBankRdBursts::4             5138                       # Per bank write bursts
system.mem_ctrls0.perBankRdBursts::5             5151                       # Per bank write bursts
system.mem_ctrls0.perBankRdBursts::6             4753                       # Per bank write bursts
system.mem_ctrls0.perBankRdBursts::7             4853                       # Per bank write bursts
system.mem_ctrls0.perBankRdBursts::8             4894                       # Per bank write bursts
system.mem_ctrls0.perBankRdBursts::9             5057                       # Per bank write bursts
system.mem_ctrls0.perBankRdBursts::10            4867                       # Per bank write bursts
system.mem_ctrls0.perBankRdBursts::11            4712                       # Per bank write bursts
system.mem_ctrls0.perBankRdBursts::12            5936                       # Per bank write bursts
system.mem_ctrls0.perBankRdBursts::13            5445                       # Per bank write bursts
system.mem_ctrls0.perBankRdBursts::14            5541                       # Per bank write bursts
system.mem_ctrls0.perBankRdBursts::15            5757                       # Per bank write bursts
system.mem_ctrls0.perBankWrBursts::0              695                       # Per bank write bursts
system.mem_ctrls0.perBankWrBursts::1              734                       # Per bank write bursts
system.mem_ctrls0.perBankWrBursts::2              796                       # Per bank write bursts
system.mem_ctrls0.perBankWrBursts::3              738                       # Per bank write bursts
system.mem_ctrls0.perBankWrBursts::4              684                       # Per bank write bursts
system.mem_ctrls0.perBankWrBursts::5              622                       # Per bank write bursts
system.mem_ctrls0.perBankWrBursts::6              507                       # Per bank write bursts
system.mem_ctrls0.perBankWrBursts::7              644                       # Per bank write bursts
system.mem_ctrls0.perBankWrBursts::8              610                       # Per bank write bursts
system.mem_ctrls0.perBankWrBursts::9              489                       # Per bank write bursts
system.mem_ctrls0.perBankWrBursts::10             538                       # Per bank write bursts
system.mem_ctrls0.perBankWrBursts::11             642                       # Per bank write bursts
system.mem_ctrls0.perBankWrBursts::12             907                       # Per bank write bursts
system.mem_ctrls0.perBankWrBursts::13             767                       # Per bank write bursts
system.mem_ctrls0.perBankWrBursts::14             818                       # Per bank write bursts
system.mem_ctrls0.perBankWrBursts::15             719                       # Per bank write bursts
system.mem_ctrls0.numRdRetry                        0                       # Number of times read queue was full causing retry
system.mem_ctrls0.numWrRetry                        0                       # Number of times write queue was full causing retry
system.mem_ctrls0.totGap                 1090652015907                       # Total gap between requests
system.mem_ctrls0.readPktSize::0                    0                       # Read request sizes (log2)
system.mem_ctrls0.readPktSize::1                    0                       # Read request sizes (log2)
system.mem_ctrls0.readPktSize::2                    0                       # Read request sizes (log2)
system.mem_ctrls0.readPktSize::3                    0                       # Read request sizes (log2)
system.mem_ctrls0.readPktSize::4                    0                       # Read request sizes (log2)
system.mem_ctrls0.readPktSize::5                    0                       # Read request sizes (log2)
system.mem_ctrls0.readPktSize::6                84237                       # Read request sizes (log2)
system.mem_ctrls0.writePktSize::0                   0                       # Write request sizes (log2)
system.mem_ctrls0.writePktSize::1                   0                       # Write request sizes (log2)
system.mem_ctrls0.writePktSize::2                   0                       # Write request sizes (log2)
system.mem_ctrls0.writePktSize::3                   0                       # Write request sizes (log2)
system.mem_ctrls0.writePktSize::4                   0                       # Write request sizes (log2)
system.mem_ctrls0.writePktSize::5                   0                       # Write request sizes (log2)
system.mem_ctrls0.writePktSize::6               10932                       # Write request sizes (log2)
system.mem_ctrls0.rdQLenPdf::0                  81952                       # What read queue length does an incoming req see
system.mem_ctrls0.rdQLenPdf::1                   2167                       # What read queue length does an incoming req see
system.mem_ctrls0.rdQLenPdf::2                     65                       # What read queue length does an incoming req see
system.mem_ctrls0.rdQLenPdf::3                      4                       # What read queue length does an incoming req see
system.mem_ctrls0.rdQLenPdf::4                      0                       # What read queue length does an incoming req see
system.mem_ctrls0.rdQLenPdf::5                      0                       # What read queue length does an incoming req see
system.mem_ctrls0.rdQLenPdf::6                      0                       # What read queue length does an incoming req see
system.mem_ctrls0.rdQLenPdf::7                      0                       # What read queue length does an incoming req see
system.mem_ctrls0.rdQLenPdf::8                      0                       # What read queue length does an incoming req see
system.mem_ctrls0.rdQLenPdf::9                      0                       # What read queue length does an incoming req see
system.mem_ctrls0.rdQLenPdf::10                     0                       # What read queue length does an incoming req see
system.mem_ctrls0.rdQLenPdf::11                     0                       # What read queue length does an incoming req see
system.mem_ctrls0.rdQLenPdf::12                     0                       # What read queue length does an incoming req see
system.mem_ctrls0.rdQLenPdf::13                     0                       # What read queue length does an incoming req see
system.mem_ctrls0.rdQLenPdf::14                     0                       # What read queue length does an incoming req see
system.mem_ctrls0.rdQLenPdf::15                     0                       # What read queue length does an incoming req see
system.mem_ctrls0.rdQLenPdf::16                     0                       # What read queue length does an incoming req see
system.mem_ctrls0.rdQLenPdf::17                     0                       # What read queue length does an incoming req see
system.mem_ctrls0.rdQLenPdf::18                     0                       # What read queue length does an incoming req see
system.mem_ctrls0.rdQLenPdf::19                     0                       # What read queue length does an incoming req see
system.mem_ctrls0.rdQLenPdf::20                     0                       # What read queue length does an incoming req see
system.mem_ctrls0.rdQLenPdf::21                     0                       # What read queue length does an incoming req see
system.mem_ctrls0.rdQLenPdf::22                     0                       # What read queue length does an incoming req see
system.mem_ctrls0.rdQLenPdf::23                     0                       # What read queue length does an incoming req see
system.mem_ctrls0.rdQLenPdf::24                     0                       # What read queue length does an incoming req see
system.mem_ctrls0.rdQLenPdf::25                     0                       # What read queue length does an incoming req see
system.mem_ctrls0.rdQLenPdf::26                     0                       # What read queue length does an incoming req see
system.mem_ctrls0.rdQLenPdf::27                     0                       # What read queue length does an incoming req see
system.mem_ctrls0.rdQLenPdf::28                     0                       # What read queue length does an incoming req see
system.mem_ctrls0.rdQLenPdf::29                     0                       # What read queue length does an incoming req see
system.mem_ctrls0.rdQLenPdf::30                     0                       # What read queue length does an incoming req see
system.mem_ctrls0.rdQLenPdf::31                     0                       # What read queue length does an incoming req see
system.mem_ctrls0.wrQLenPdf::0                      2                       # What write queue length does an incoming req see
system.mem_ctrls0.wrQLenPdf::1                      2                       # What write queue length does an incoming req see
system.mem_ctrls0.wrQLenPdf::2                      2                       # What write queue length does an incoming req see
system.mem_ctrls0.wrQLenPdf::3                      2                       # What write queue length does an incoming req see
system.mem_ctrls0.wrQLenPdf::4                      2                       # What write queue length does an incoming req see
system.mem_ctrls0.wrQLenPdf::5                      2                       # What write queue length does an incoming req see
system.mem_ctrls0.wrQLenPdf::6                      2                       # What write queue length does an incoming req see
system.mem_ctrls0.wrQLenPdf::7                      2                       # What write queue length does an incoming req see
system.mem_ctrls0.wrQLenPdf::8                      2                       # What write queue length does an incoming req see
system.mem_ctrls0.wrQLenPdf::9                      2                       # What write queue length does an incoming req see
system.mem_ctrls0.wrQLenPdf::10                     2                       # What write queue length does an incoming req see
system.mem_ctrls0.wrQLenPdf::11                     2                       # What write queue length does an incoming req see
system.mem_ctrls0.wrQLenPdf::12                     2                       # What write queue length does an incoming req see
system.mem_ctrls0.wrQLenPdf::13                     2                       # What write queue length does an incoming req see
system.mem_ctrls0.wrQLenPdf::14                     2                       # What write queue length does an incoming req see
system.mem_ctrls0.wrQLenPdf::15                   499                       # What write queue length does an incoming req see
system.mem_ctrls0.wrQLenPdf::16                   511                       # What write queue length does an incoming req see
system.mem_ctrls0.wrQLenPdf::17                   611                       # What write queue length does an incoming req see
system.mem_ctrls0.wrQLenPdf::18                   617                       # What write queue length does an incoming req see
system.mem_ctrls0.wrQLenPdf::19                   621                       # What write queue length does an incoming req see
system.mem_ctrls0.wrQLenPdf::20                   619                       # What write queue length does an incoming req see
system.mem_ctrls0.wrQLenPdf::21                   619                       # What write queue length does an incoming req see
system.mem_ctrls0.wrQLenPdf::22                   621                       # What write queue length does an incoming req see
system.mem_ctrls0.wrQLenPdf::23                   621                       # What write queue length does an incoming req see
system.mem_ctrls0.wrQLenPdf::24                   617                       # What write queue length does an incoming req see
system.mem_ctrls0.wrQLenPdf::25                   617                       # What write queue length does an incoming req see
system.mem_ctrls0.wrQLenPdf::26                   618                       # What write queue length does an incoming req see
system.mem_ctrls0.wrQLenPdf::27                   618                       # What write queue length does an incoming req see
system.mem_ctrls0.wrQLenPdf::28                   617                       # What write queue length does an incoming req see
system.mem_ctrls0.wrQLenPdf::29                   620                       # What write queue length does an incoming req see
system.mem_ctrls0.wrQLenPdf::30                   621                       # What write queue length does an incoming req see
system.mem_ctrls0.wrQLenPdf::31                   616                       # What write queue length does an incoming req see
system.mem_ctrls0.wrQLenPdf::32                   616                       # What write queue length does an incoming req see
system.mem_ctrls0.wrQLenPdf::33                     3                       # What write queue length does an incoming req see
system.mem_ctrls0.wrQLenPdf::34                     0                       # What write queue length does an incoming req see
system.mem_ctrls0.wrQLenPdf::35                     0                       # What write queue length does an incoming req see
system.mem_ctrls0.wrQLenPdf::36                     0                       # What write queue length does an incoming req see
system.mem_ctrls0.wrQLenPdf::37                     0                       # What write queue length does an incoming req see
system.mem_ctrls0.wrQLenPdf::38                     0                       # What write queue length does an incoming req see
system.mem_ctrls0.wrQLenPdf::39                     0                       # What write queue length does an incoming req see
system.mem_ctrls0.wrQLenPdf::40                     0                       # What write queue length does an incoming req see
system.mem_ctrls0.wrQLenPdf::41                     0                       # What write queue length does an incoming req see
system.mem_ctrls0.wrQLenPdf::42                     0                       # What write queue length does an incoming req see
system.mem_ctrls0.wrQLenPdf::43                     0                       # What write queue length does an incoming req see
system.mem_ctrls0.wrQLenPdf::44                     0                       # What write queue length does an incoming req see
system.mem_ctrls0.wrQLenPdf::45                     0                       # What write queue length does an incoming req see
system.mem_ctrls0.wrQLenPdf::46                     0                       # What write queue length does an incoming req see
system.mem_ctrls0.wrQLenPdf::47                     0                       # What write queue length does an incoming req see
system.mem_ctrls0.wrQLenPdf::48                     0                       # What write queue length does an incoming req see
system.mem_ctrls0.wrQLenPdf::49                     0                       # What write queue length does an incoming req see
system.mem_ctrls0.wrQLenPdf::50                     0                       # What write queue length does an incoming req see
system.mem_ctrls0.wrQLenPdf::51                     0                       # What write queue length does an incoming req see
system.mem_ctrls0.wrQLenPdf::52                     0                       # What write queue length does an incoming req see
system.mem_ctrls0.wrQLenPdf::53                     0                       # What write queue length does an incoming req see
system.mem_ctrls0.wrQLenPdf::54                     0                       # What write queue length does an incoming req see
system.mem_ctrls0.wrQLenPdf::55                     0                       # What write queue length does an incoming req see
system.mem_ctrls0.wrQLenPdf::56                     0                       # What write queue length does an incoming req see
system.mem_ctrls0.wrQLenPdf::57                     0                       # What write queue length does an incoming req see
system.mem_ctrls0.wrQLenPdf::58                     0                       # What write queue length does an incoming req see
system.mem_ctrls0.wrQLenPdf::59                     0                       # What write queue length does an incoming req see
system.mem_ctrls0.wrQLenPdf::60                     0                       # What write queue length does an incoming req see
system.mem_ctrls0.wrQLenPdf::61                     0                       # What write queue length does an incoming req see
system.mem_ctrls0.wrQLenPdf::62                     0                       # What write queue length does an incoming req see
system.mem_ctrls0.wrQLenPdf::63                     0                       # What write queue length does an incoming req see
system.mem_ctrls0.bytesPerActivate::samples        47241                       # Bytes accessed per row activation
system.mem_ctrls0.bytesPerActivate::mean   128.834529                       # Bytes accessed per row activation
system.mem_ctrls0.bytesPerActivate::gmean    94.451528                       # Bytes accessed per row activation
system.mem_ctrls0.bytesPerActivate::stdev   149.495939                       # Bytes accessed per row activation
system.mem_ctrls0.bytesPerActivate::0-127        32084     67.92%     67.92% # Bytes accessed per row activation
system.mem_ctrls0.bytesPerActivate::128-255         9241     19.56%     87.48% # Bytes accessed per row activation
system.mem_ctrls0.bytesPerActivate::256-383         2424      5.13%     92.61% # Bytes accessed per row activation
system.mem_ctrls0.bytesPerActivate::384-511         1445      3.06%     95.67% # Bytes accessed per row activation
system.mem_ctrls0.bytesPerActivate::512-639          822      1.74%     97.41% # Bytes accessed per row activation
system.mem_ctrls0.bytesPerActivate::640-767          524      1.11%     98.52% # Bytes accessed per row activation
system.mem_ctrls0.bytesPerActivate::768-895          259      0.55%     99.06% # Bytes accessed per row activation
system.mem_ctrls0.bytesPerActivate::896-1023          111      0.23%     99.30% # Bytes accessed per row activation
system.mem_ctrls0.bytesPerActivate::1024-1151          331      0.70%    100.00% # Bytes accessed per row activation
system.mem_ctrls0.bytesPerActivate::total        47241                       # Bytes accessed per row activation
system.mem_ctrls0.rdPerTurnAround::samples          617                       # Reads before turning the bus around for writes
system.mem_ctrls0.rdPerTurnAround::mean    136.385737                       # Reads before turning the bus around for writes
system.mem_ctrls0.rdPerTurnAround::stdev  1098.123068                       # Reads before turning the bus around for writes
system.mem_ctrls0.rdPerTurnAround::0-1023          616     99.84%     99.84% # Reads before turning the bus around for writes
system.mem_ctrls0.rdPerTurnAround::26624-27647            1      0.16%    100.00% # Reads before turning the bus around for writes
system.mem_ctrls0.rdPerTurnAround::total          617                       # Reads before turning the bus around for writes
system.mem_ctrls0.wrPerTurnAround::samples          617                       # Writes before turning the bus around for reads
system.mem_ctrls0.wrPerTurnAround::mean     17.682334                       # Writes before turning the bus around for reads
system.mem_ctrls0.wrPerTurnAround::gmean    17.658812                       # Writes before turning the bus around for reads
system.mem_ctrls0.wrPerTurnAround::stdev     0.937787                       # Writes before turning the bus around for reads
system.mem_ctrls0.wrPerTurnAround::16             107     17.34%     17.34% # Writes before turning the bus around for reads
system.mem_ctrls0.wrPerTurnAround::17              12      1.94%     19.29% # Writes before turning the bus around for reads
system.mem_ctrls0.wrPerTurnAround::18             480     77.80%     97.08% # Writes before turning the bus around for reads
system.mem_ctrls0.wrPerTurnAround::19              16      2.59%     99.68% # Writes before turning the bus around for reads
system.mem_ctrls0.wrPerTurnAround::20               1      0.16%     99.84% # Writes before turning the bus around for reads
system.mem_ctrls0.wrPerTurnAround::30               1      0.16%    100.00% # Writes before turning the bus around for reads
system.mem_ctrls0.wrPerTurnAround::total          617                       # Writes before turning the bus around for reads
system.mem_ctrls0.totQLat                  3739468903                       # Total ticks spent queuing
system.mem_ctrls0.totMemAccLat             5317993903                       # Total ticks spent from burst creation until serviced by the DRAM
system.mem_ctrls0.totBusLat                 420940000                       # Total ticks spent in databus transfers
system.mem_ctrls0.avgQLat                    44418.08                       # Average queueing delay per DRAM burst
system.mem_ctrls0.avgBusLat                   5000.00                       # Average bus latency per DRAM burst
system.mem_ctrls0.avgMemAccLat               63168.08                       # Average memory access latency per DRAM burst
system.mem_ctrls0.avgRdBW                        4.94                       # Average DRAM read bandwidth in MiByte/s
system.mem_ctrls0.avgWrBW                        0.64                       # Average achieved write bandwidth in MiByte/s
system.mem_ctrls0.avgRdBWSys                     4.94                       # Average system read bandwidth in MiByte/s
system.mem_ctrls0.avgWrBWSys                     0.64                       # Average system write bandwidth in MiByte/s
system.mem_ctrls0.peakBW                     12800.00                       # Theoretical peak bandwidth in MiByte/s
system.mem_ctrls0.busUtil                        0.04                       # Data bus utilization in percentage
system.mem_ctrls0.busUtilRead                    0.04                       # Data bus utilization in percentage for reads
system.mem_ctrls0.busUtilWrite                   0.01                       # Data bus utilization in percentage for writes
system.mem_ctrls0.avgRdQLen                      1.01                       # Average read queue length when enqueuing
system.mem_ctrls0.avgWrQLen                     17.89                       # Average write queue length when enqueuing
system.mem_ctrls0.readRowHits                   46262                       # Number of row buffer hits during reads
system.mem_ctrls0.writeRowHits                   1595                       # Number of row buffer hits during writes
system.mem_ctrls0.readRowHitRate                54.95                       # Row buffer hit rate for reads
system.mem_ctrls0.writeRowHitRate               14.59                       # Row buffer hit rate for writes
system.mem_ctrls0.avgGap                  11460160.51                       # Average gap between requests
system.mem_ctrls0.pageHitRate                   50.31                       # Row buffer hit rate, read and write combined
system.mem_ctrls0_0.actEnergy               171302880                       # Energy for activate commands per rank (pJ)
system.mem_ctrls0_0.preEnergy                91049640                       # Energy for precharge commands per rank (pJ)
system.mem_ctrls0_0.readEnergy              299730060                       # Energy for read commands per rank (pJ)
system.mem_ctrls0_0.writeEnergy              28292400                       # Energy for write commands per rank (pJ)
system.mem_ctrls0_0.refreshEnergy        7102779840.000002                       # Energy for refresh commands per rank (pJ)
system.mem_ctrls0_0.actBackEnergy          2391481740                       # Energy for active background per rank (pJ)
system.mem_ctrls0_0.preBackEnergy           343209600                       # Energy for precharge background per rank (pJ)
system.mem_ctrls0_0.actPowerDownEnergy    20050445970                       # Energy for active power-down per rank (pJ)
system.mem_ctrls0_0.prePowerDownEnergy     9372373920                       # Energy for precharge power-down per rank (pJ)
system.mem_ctrls0_0.selfRefreshEnergy    245054522655                       # Energy for self refresh per rank (pJ)
system.mem_ctrls0_0.totalEnergy          284907382275                       # Total energy per rank (pJ)
system.mem_ctrls0_0.averagePower           261.223244                       # Core power per rank (mW)
system.mem_ctrls0_0.totalIdleTime        1084508875498                       # Total Idle time Per DRAM Rank
system.mem_ctrls0_0.memoryStateTime::IDLE    616522754                       # Time in different power states
system.mem_ctrls0_0.memoryStateTime::REF   3017562000                       # Time in different power states
system.mem_ctrls0_0.memoryStateTime::SREF 1016145634636                       # Time in different power states
system.mem_ctrls0_0.memoryStateTime::PRE_PDN  24407295096                       # Time in different power states
system.mem_ctrls0_0.memoryStateTime::ACT   2509150317                       # Time in different power states
system.mem_ctrls0_0.memoryStateTime::ACT_PDN  43970107833                       # Time in different power states
system.mem_ctrls0_1.actEnergy               165997860                       # Energy for activate commands per rank (pJ)
system.mem_ctrls0_1.preEnergy                88229955                       # Energy for precharge commands per rank (pJ)
system.mem_ctrls0_1.readEnergy              301372260                       # Energy for read commands per rank (pJ)
system.mem_ctrls0_1.writeEnergy              28657800                       # Energy for write commands per rank (pJ)
system.mem_ctrls0_1.refreshEnergy        7148263200.000002                       # Energy for refresh commands per rank (pJ)
system.mem_ctrls0_1.actBackEnergy          2371825860                       # Energy for active background per rank (pJ)
system.mem_ctrls0_1.preBackEnergy           346486560                       # Energy for precharge background per rank (pJ)
system.mem_ctrls0_1.actPowerDownEnergy    20158333290                       # Energy for active power-down per rank (pJ)
system.mem_ctrls0_1.prePowerDownEnergy     9324160800                       # Energy for precharge power-down per rank (pJ)
system.mem_ctrls0_1.selfRefreshEnergy    245074070280                       # Energy for self refresh per rank (pJ)
system.mem_ctrls0_1.totalEnergy          285009342645                       # Total energy per rank (pJ)
system.mem_ctrls0_1.averagePower           261.316729                       # Core power per rank (mW)
system.mem_ctrls0_1.totalIdleTime        1084546059167                       # Total Idle time Per DRAM Rank
system.mem_ctrls0_1.memoryStateTime::IDLE    625152452                       # Time in different power states
system.mem_ctrls0_1.memoryStateTime::REF   3037228000                       # Time in different power states
system.mem_ctrls0_1.memoryStateTime::SREF 1016069719386                       # Time in different power states
system.mem_ctrls0_1.memoryStateTime::PRE_PDN  24281666960                       # Time in different power states
system.mem_ctrls0_1.memoryStateTime::ACT   2445855185                       # Time in different power states
system.mem_ctrls0_1.memoryStateTime::ACT_PDN  44206650653                       # Time in different power states
system.mem_ctrls1.pwrStateResidencyTicks::UNDEFINED 31102080433686                       # Cumulative time (in ticks) in various power states
system.mem_ctrls1.bytes_read::cpu.inst            192                       # Number of bytes read from this memory
system.mem_ctrls1.bytes_read::cpu.data            192                       # Number of bytes read from this memory
system.mem_ctrls1.bytes_read::switch_cpus.inst       136384                       # Number of bytes read from this memory
system.mem_ctrls1.bytes_read::switch_cpus.data      3620608                       # Number of bytes read from this memory
system.mem_ctrls1.bytes_read::switch_cpus_1.inst       104384                       # Number of bytes read from this memory
system.mem_ctrls1.bytes_read::switch_cpus_1.data      1551360                       # Number of bytes read from this memory
system.mem_ctrls1.bytes_read::total           5413120                       # Number of bytes read from this memory
system.mem_ctrls1.bytes_inst_read::cpu.inst          192                       # Number of instructions bytes read from this memory
system.mem_ctrls1.bytes_inst_read::switch_cpus.inst       136384                       # Number of instructions bytes read from this memory
system.mem_ctrls1.bytes_inst_read::switch_cpus_1.inst       104384                       # Number of instructions bytes read from this memory
system.mem_ctrls1.bytes_inst_read::total       240960                       # Number of instructions bytes read from this memory
system.mem_ctrls1.bytes_written::writebacks       698624                       # Number of bytes written to this memory
system.mem_ctrls1.bytes_written::total         698624                       # Number of bytes written to this memory
system.mem_ctrls1.num_reads::cpu.inst               3                       # Number of read requests responded to by this memory
system.mem_ctrls1.num_reads::cpu.data               3                       # Number of read requests responded to by this memory
system.mem_ctrls1.num_reads::switch_cpus.inst         2131                       # Number of read requests responded to by this memory
system.mem_ctrls1.num_reads::switch_cpus.data        56572                       # Number of read requests responded to by this memory
system.mem_ctrls1.num_reads::switch_cpus_1.inst         1631                       # Number of read requests responded to by this memory
system.mem_ctrls1.num_reads::switch_cpus_1.data        24240                       # Number of read requests responded to by this memory
system.mem_ctrls1.num_reads::total              84580                       # Number of read requests responded to by this memory
system.mem_ctrls1.num_writes::writebacks        10916                       # Number of write requests responded to by this memory
system.mem_ctrls1.num_writes::total             10916                       # Number of write requests responded to by this memory
system.mem_ctrls1.bw_read::cpu.inst               176                       # Total read bandwidth from this memory (bytes/s)
system.mem_ctrls1.bw_read::cpu.data               176                       # Total read bandwidth from this memory (bytes/s)
system.mem_ctrls1.bw_read::switch_cpus.inst       125046                       # Total read bandwidth from this memory (bytes/s)
system.mem_ctrls1.bw_read::switch_cpus.data      3319630                       # Total read bandwidth from this memory (bytes/s)
system.mem_ctrls1.bw_read::switch_cpus_1.inst        95707                       # Total read bandwidth from this memory (bytes/s)
system.mem_ctrls1.bw_read::switch_cpus_1.data      1422397                       # Total read bandwidth from this memory (bytes/s)
system.mem_ctrls1.bw_read::total              4963131                       # Total read bandwidth from this memory (bytes/s)
system.mem_ctrls1.bw_inst_read::cpu.inst          176                       # Instruction read bandwidth from this memory (bytes/s)
system.mem_ctrls1.bw_inst_read::switch_cpus.inst       125046                       # Instruction read bandwidth from this memory (bytes/s)
system.mem_ctrls1.bw_inst_read::switch_cpus_1.inst        95707                       # Instruction read bandwidth from this memory (bytes/s)
system.mem_ctrls1.bw_inst_read::total          220929                       # Instruction read bandwidth from this memory (bytes/s)
system.mem_ctrls1.bw_write::writebacks         640548                       # Write bandwidth from this memory (bytes/s)
system.mem_ctrls1.bw_write::total              640548                       # Write bandwidth from this memory (bytes/s)
system.mem_ctrls1.bw_total::writebacks         640548                       # Total bandwidth to/from this memory (bytes/s)
system.mem_ctrls1.bw_total::cpu.inst              176                       # Total bandwidth to/from this memory (bytes/s)
system.mem_ctrls1.bw_total::cpu.data              176                       # Total bandwidth to/from this memory (bytes/s)
system.mem_ctrls1.bw_total::switch_cpus.inst       125046                       # Total bandwidth to/from this memory (bytes/s)
system.mem_ctrls1.bw_total::switch_cpus.data      3319630                       # Total bandwidth to/from this memory (bytes/s)
system.mem_ctrls1.bw_total::switch_cpus_1.inst        95707                       # Total bandwidth to/from this memory (bytes/s)
system.mem_ctrls1.bw_total::switch_cpus_1.data      1422397                       # Total bandwidth to/from this memory (bytes/s)
system.mem_ctrls1.bw_total::total             5603679                       # Total bandwidth to/from this memory (bytes/s)
system.mem_ctrls1.readReqs                      84580                       # Number of read requests accepted
system.mem_ctrls1.writeReqs                     10916                       # Number of write requests accepted
system.mem_ctrls1.readBursts                    84580                       # Number of DRAM read bursts, including those serviced by the write queue
system.mem_ctrls1.writeBursts                   10916                       # Number of DRAM write bursts, including those merged in the write queue
system.mem_ctrls1.bytesReadDRAM               5409984                       # Total number of bytes read from DRAM
system.mem_ctrls1.bytesReadWrQ                   3136                       # Total number of bytes read from write queue
system.mem_ctrls1.bytesWritten                 696896                       # Total number of bytes written to DRAM
system.mem_ctrls1.bytesReadSys                5413120                       # Total read bytes from the system interface side
system.mem_ctrls1.bytesWrittenSys              698624                       # Total written bytes from the system interface side
system.mem_ctrls1.servicedByWrQ                    49                       # Number of DRAM read bursts serviced by the write queue
system.mem_ctrls1.mergedWrBursts                    0                       # Number of DRAM write bursts merged with an existing one
system.mem_ctrls1.neitherReadNorWriteReqs            0                       # Number of requests that are neither read nor write
system.mem_ctrls1.perBankRdBursts::0             5280                       # Per bank write bursts
system.mem_ctrls1.perBankRdBursts::1             5390                       # Per bank write bursts
system.mem_ctrls1.perBankRdBursts::2             5847                       # Per bank write bursts
system.mem_ctrls1.perBankRdBursts::3             5560                       # Per bank write bursts
system.mem_ctrls1.perBankRdBursts::4             5179                       # Per bank write bursts
system.mem_ctrls1.perBankRdBursts::5             5067                       # Per bank write bursts
system.mem_ctrls1.perBankRdBursts::6             4814                       # Per bank write bursts
system.mem_ctrls1.perBankRdBursts::7             4830                       # Per bank write bursts
system.mem_ctrls1.perBankRdBursts::8             5087                       # Per bank write bursts
system.mem_ctrls1.perBankRdBursts::9             4997                       # Per bank write bursts
system.mem_ctrls1.perBankRdBursts::10            4919                       # Per bank write bursts
system.mem_ctrls1.perBankRdBursts::11            4712                       # Per bank write bursts
system.mem_ctrls1.perBankRdBursts::12            5938                       # Per bank write bursts
system.mem_ctrls1.perBankRdBursts::13            5544                       # Per bank write bursts
system.mem_ctrls1.perBankRdBursts::14            5568                       # Per bank write bursts
system.mem_ctrls1.perBankRdBursts::15            5799                       # Per bank write bursts
system.mem_ctrls1.perBankWrBursts::0              701                       # Per bank write bursts
system.mem_ctrls1.perBankWrBursts::1              703                       # Per bank write bursts
system.mem_ctrls1.perBankWrBursts::2              723                       # Per bank write bursts
system.mem_ctrls1.perBankWrBursts::3              743                       # Per bank write bursts
system.mem_ctrls1.perBankWrBursts::4              725                       # Per bank write bursts
system.mem_ctrls1.perBankWrBursts::5              606                       # Per bank write bursts
system.mem_ctrls1.perBankWrBursts::6              492                       # Per bank write bursts
system.mem_ctrls1.perBankWrBursts::7              632                       # Per bank write bursts
system.mem_ctrls1.perBankWrBursts::8              688                       # Per bank write bursts
system.mem_ctrls1.perBankWrBursts::9              476                       # Per bank write bursts
system.mem_ctrls1.perBankWrBursts::10             574                       # Per bank write bursts
system.mem_ctrls1.perBankWrBursts::11             600                       # Per bank write bursts
system.mem_ctrls1.perBankWrBursts::12             830                       # Per bank write bursts
system.mem_ctrls1.perBankWrBursts::13             769                       # Per bank write bursts
system.mem_ctrls1.perBankWrBursts::14             837                       # Per bank write bursts
system.mem_ctrls1.perBankWrBursts::15             790                       # Per bank write bursts
system.mem_ctrls1.numRdRetry                        0                       # Number of times read queue was full causing retry
system.mem_ctrls1.numWrRetry                        0                       # Number of times write queue was full causing retry
system.mem_ctrls1.totGap                 1090664209368                       # Total gap between requests
system.mem_ctrls1.readPktSize::0                    0                       # Read request sizes (log2)
system.mem_ctrls1.readPktSize::1                    0                       # Read request sizes (log2)
system.mem_ctrls1.readPktSize::2                    0                       # Read request sizes (log2)
system.mem_ctrls1.readPktSize::3                    0                       # Read request sizes (log2)
system.mem_ctrls1.readPktSize::4                    0                       # Read request sizes (log2)
system.mem_ctrls1.readPktSize::5                    0                       # Read request sizes (log2)
system.mem_ctrls1.readPktSize::6                84580                       # Read request sizes (log2)
system.mem_ctrls1.writePktSize::0                   0                       # Write request sizes (log2)
system.mem_ctrls1.writePktSize::1                   0                       # Write request sizes (log2)
system.mem_ctrls1.writePktSize::2                   0                       # Write request sizes (log2)
system.mem_ctrls1.writePktSize::3                   0                       # Write request sizes (log2)
system.mem_ctrls1.writePktSize::4                   0                       # Write request sizes (log2)
system.mem_ctrls1.writePktSize::5                   0                       # Write request sizes (log2)
system.mem_ctrls1.writePktSize::6               10916                       # Write request sizes (log2)
system.mem_ctrls1.rdQLenPdf::0                  82442                       # What read queue length does an incoming req see
system.mem_ctrls1.rdQLenPdf::1                   2023                       # What read queue length does an incoming req see
system.mem_ctrls1.rdQLenPdf::2                     61                       # What read queue length does an incoming req see
system.mem_ctrls1.rdQLenPdf::3                      5                       # What read queue length does an incoming req see
system.mem_ctrls1.rdQLenPdf::4                      0                       # What read queue length does an incoming req see
system.mem_ctrls1.rdQLenPdf::5                      0                       # What read queue length does an incoming req see
system.mem_ctrls1.rdQLenPdf::6                      0                       # What read queue length does an incoming req see
system.mem_ctrls1.rdQLenPdf::7                      0                       # What read queue length does an incoming req see
system.mem_ctrls1.rdQLenPdf::8                      0                       # What read queue length does an incoming req see
system.mem_ctrls1.rdQLenPdf::9                      0                       # What read queue length does an incoming req see
system.mem_ctrls1.rdQLenPdf::10                     0                       # What read queue length does an incoming req see
system.mem_ctrls1.rdQLenPdf::11                     0                       # What read queue length does an incoming req see
system.mem_ctrls1.rdQLenPdf::12                     0                       # What read queue length does an incoming req see
system.mem_ctrls1.rdQLenPdf::13                     0                       # What read queue length does an incoming req see
system.mem_ctrls1.rdQLenPdf::14                     0                       # What read queue length does an incoming req see
system.mem_ctrls1.rdQLenPdf::15                     0                       # What read queue length does an incoming req see
system.mem_ctrls1.rdQLenPdf::16                     0                       # What read queue length does an incoming req see
system.mem_ctrls1.rdQLenPdf::17                     0                       # What read queue length does an incoming req see
system.mem_ctrls1.rdQLenPdf::18                     0                       # What read queue length does an incoming req see
system.mem_ctrls1.rdQLenPdf::19                     0                       # What read queue length does an incoming req see
system.mem_ctrls1.rdQLenPdf::20                     0                       # What read queue length does an incoming req see
system.mem_ctrls1.rdQLenPdf::21                     0                       # What read queue length does an incoming req see
system.mem_ctrls1.rdQLenPdf::22                     0                       # What read queue length does an incoming req see
system.mem_ctrls1.rdQLenPdf::23                     0                       # What read queue length does an incoming req see
system.mem_ctrls1.rdQLenPdf::24                     0                       # What read queue length does an incoming req see
system.mem_ctrls1.rdQLenPdf::25                     0                       # What read queue length does an incoming req see
system.mem_ctrls1.rdQLenPdf::26                     0                       # What read queue length does an incoming req see
system.mem_ctrls1.rdQLenPdf::27                     0                       # What read queue length does an incoming req see
system.mem_ctrls1.rdQLenPdf::28                     0                       # What read queue length does an incoming req see
system.mem_ctrls1.rdQLenPdf::29                     0                       # What read queue length does an incoming req see
system.mem_ctrls1.rdQLenPdf::30                     0                       # What read queue length does an incoming req see
system.mem_ctrls1.rdQLenPdf::31                     0                       # What read queue length does an incoming req see
system.mem_ctrls1.wrQLenPdf::0                      2                       # What write queue length does an incoming req see
system.mem_ctrls1.wrQLenPdf::1                      2                       # What write queue length does an incoming req see
system.mem_ctrls1.wrQLenPdf::2                      2                       # What write queue length does an incoming req see
system.mem_ctrls1.wrQLenPdf::3                      2                       # What write queue length does an incoming req see
system.mem_ctrls1.wrQLenPdf::4                      2                       # What write queue length does an incoming req see
system.mem_ctrls1.wrQLenPdf::5                      2                       # What write queue length does an incoming req see
system.mem_ctrls1.wrQLenPdf::6                      2                       # What write queue length does an incoming req see
system.mem_ctrls1.wrQLenPdf::7                      2                       # What write queue length does an incoming req see
system.mem_ctrls1.wrQLenPdf::8                      2                       # What write queue length does an incoming req see
system.mem_ctrls1.wrQLenPdf::9                      2                       # What write queue length does an incoming req see
system.mem_ctrls1.wrQLenPdf::10                     2                       # What write queue length does an incoming req see
system.mem_ctrls1.wrQLenPdf::11                     2                       # What write queue length does an incoming req see
system.mem_ctrls1.wrQLenPdf::12                     2                       # What write queue length does an incoming req see
system.mem_ctrls1.wrQLenPdf::13                     2                       # What write queue length does an incoming req see
system.mem_ctrls1.wrQLenPdf::14                     2                       # What write queue length does an incoming req see
system.mem_ctrls1.wrQLenPdf::15                   521                       # What write queue length does an incoming req see
system.mem_ctrls1.wrQLenPdf::16                   534                       # What write queue length does an incoming req see
system.mem_ctrls1.wrQLenPdf::17                   606                       # What write queue length does an incoming req see
system.mem_ctrls1.wrQLenPdf::18                   614                       # What write queue length does an incoming req see
system.mem_ctrls1.wrQLenPdf::19                   615                       # What write queue length does an incoming req see
system.mem_ctrls1.wrQLenPdf::20                   617                       # What write queue length does an incoming req see
system.mem_ctrls1.wrQLenPdf::21                   616                       # What write queue length does an incoming req see
system.mem_ctrls1.wrQLenPdf::22                   617                       # What write queue length does an incoming req see
system.mem_ctrls1.wrQLenPdf::23                   617                       # What write queue length does an incoming req see
system.mem_ctrls1.wrQLenPdf::24                   616                       # What write queue length does an incoming req see
system.mem_ctrls1.wrQLenPdf::25                   615                       # What write queue length does an incoming req see
system.mem_ctrls1.wrQLenPdf::26                   618                       # What write queue length does an incoming req see
system.mem_ctrls1.wrQLenPdf::27                   612                       # What write queue length does an incoming req see
system.mem_ctrls1.wrQLenPdf::28                   613                       # What write queue length does an incoming req see
system.mem_ctrls1.wrQLenPdf::29                   614                       # What write queue length does an incoming req see
system.mem_ctrls1.wrQLenPdf::30                   616                       # What write queue length does an incoming req see
system.mem_ctrls1.wrQLenPdf::31                   612                       # What write queue length does an incoming req see
system.mem_ctrls1.wrQLenPdf::32                   612                       # What write queue length does an incoming req see
system.mem_ctrls1.wrQLenPdf::33                     1                       # What write queue length does an incoming req see
system.mem_ctrls1.wrQLenPdf::34                     0                       # What write queue length does an incoming req see
system.mem_ctrls1.wrQLenPdf::35                     0                       # What write queue length does an incoming req see
system.mem_ctrls1.wrQLenPdf::36                     0                       # What write queue length does an incoming req see
system.mem_ctrls1.wrQLenPdf::37                     0                       # What write queue length does an incoming req see
system.mem_ctrls1.wrQLenPdf::38                     0                       # What write queue length does an incoming req see
system.mem_ctrls1.wrQLenPdf::39                     0                       # What write queue length does an incoming req see
system.mem_ctrls1.wrQLenPdf::40                     0                       # What write queue length does an incoming req see
system.mem_ctrls1.wrQLenPdf::41                     0                       # What write queue length does an incoming req see
system.mem_ctrls1.wrQLenPdf::42                     0                       # What write queue length does an incoming req see
system.mem_ctrls1.wrQLenPdf::43                     0                       # What write queue length does an incoming req see
system.mem_ctrls1.wrQLenPdf::44                     0                       # What write queue length does an incoming req see
system.mem_ctrls1.wrQLenPdf::45                     0                       # What write queue length does an incoming req see
system.mem_ctrls1.wrQLenPdf::46                     0                       # What write queue length does an incoming req see
system.mem_ctrls1.wrQLenPdf::47                     0                       # What write queue length does an incoming req see
system.mem_ctrls1.wrQLenPdf::48                     0                       # What write queue length does an incoming req see
system.mem_ctrls1.wrQLenPdf::49                     0                       # What write queue length does an incoming req see
system.mem_ctrls1.wrQLenPdf::50                     0                       # What write queue length does an incoming req see
system.mem_ctrls1.wrQLenPdf::51                     0                       # What write queue length does an incoming req see
system.mem_ctrls1.wrQLenPdf::52                     0                       # What write queue length does an incoming req see
system.mem_ctrls1.wrQLenPdf::53                     0                       # What write queue length does an incoming req see
system.mem_ctrls1.wrQLenPdf::54                     0                       # What write queue length does an incoming req see
system.mem_ctrls1.wrQLenPdf::55                     0                       # What write queue length does an incoming req see
system.mem_ctrls1.wrQLenPdf::56                     0                       # What write queue length does an incoming req see
system.mem_ctrls1.wrQLenPdf::57                     0                       # What write queue length does an incoming req see
system.mem_ctrls1.wrQLenPdf::58                     0                       # What write queue length does an incoming req see
system.mem_ctrls1.wrQLenPdf::59                     0                       # What write queue length does an incoming req see
system.mem_ctrls1.wrQLenPdf::60                     0                       # What write queue length does an incoming req see
system.mem_ctrls1.wrQLenPdf::61                     0                       # What write queue length does an incoming req see
system.mem_ctrls1.wrQLenPdf::62                     0                       # What write queue length does an incoming req see
system.mem_ctrls1.wrQLenPdf::63                     0                       # What write queue length does an incoming req see
system.mem_ctrls1.bytesPerActivate::samples        47408                       # Bytes accessed per row activation
system.mem_ctrls1.bytesPerActivate::mean   128.814040                       # Bytes accessed per row activation
system.mem_ctrls1.bytesPerActivate::gmean    94.461154                       # Bytes accessed per row activation
system.mem_ctrls1.bytesPerActivate::stdev   149.281991                       # Bytes accessed per row activation
system.mem_ctrls1.bytesPerActivate::0-127        32177     67.87%     67.87% # Bytes accessed per row activation
system.mem_ctrls1.bytesPerActivate::128-255         9311     19.64%     87.51% # Bytes accessed per row activation
system.mem_ctrls1.bytesPerActivate::256-383         2405      5.07%     92.59% # Bytes accessed per row activation
system.mem_ctrls1.bytesPerActivate::384-511         1451      3.06%     95.65% # Bytes accessed per row activation
system.mem_ctrls1.bytesPerActivate::512-639          835      1.76%     97.41% # Bytes accessed per row activation
system.mem_ctrls1.bytesPerActivate::640-767          540      1.14%     98.55% # Bytes accessed per row activation
system.mem_ctrls1.bytesPerActivate::768-895          256      0.54%     99.09% # Bytes accessed per row activation
system.mem_ctrls1.bytesPerActivate::896-1023          108      0.23%     99.31% # Bytes accessed per row activation
system.mem_ctrls1.bytesPerActivate::1024-1151          325      0.69%    100.00% # Bytes accessed per row activation
system.mem_ctrls1.bytesPerActivate::total        47408                       # Bytes accessed per row activation
system.mem_ctrls1.rdPerTurnAround::samples          613                       # Reads before turning the bus around for writes
system.mem_ctrls1.rdPerTurnAround::mean    137.831974                       # Reads before turning the bus around for writes
system.mem_ctrls1.rdPerTurnAround::stdev  1099.148153                       # Reads before turning the bus around for writes
system.mem_ctrls1.rdPerTurnAround::0-1023          612     99.84%     99.84% # Reads before turning the bus around for writes
system.mem_ctrls1.rdPerTurnAround::26624-27647            1      0.16%    100.00% # Reads before turning the bus around for writes
system.mem_ctrls1.rdPerTurnAround::total          613                       # Reads before turning the bus around for writes
system.mem_ctrls1.wrPerTurnAround::samples          613                       # Writes before turning the bus around for reads
system.mem_ctrls1.wrPerTurnAround::mean     17.763458                       # Writes before turning the bus around for reads
system.mem_ctrls1.wrPerTurnAround::gmean    17.747501                       # Writes before turning the bus around for reads
system.mem_ctrls1.wrPerTurnAround::stdev     0.737313                       # Writes before turning the bus around for reads
system.mem_ctrls1.wrPerTurnAround::16              80     13.05%     13.05% # Writes before turning the bus around for reads
system.mem_ctrls1.wrPerTurnAround::17              13      2.12%     15.17% # Writes before turning the bus around for reads
system.mem_ctrls1.wrPerTurnAround::18             494     80.59%     95.76% # Writes before turning the bus around for reads
system.mem_ctrls1.wrPerTurnAround::19              25      4.08%     99.84% # Writes before turning the bus around for reads
system.mem_ctrls1.wrPerTurnAround::21               1      0.16%    100.00% # Writes before turning the bus around for reads
system.mem_ctrls1.wrPerTurnAround::total          613                       # Writes before turning the bus around for reads
system.mem_ctrls1.totQLat                  3716748505                       # Total ticks spent queuing
system.mem_ctrls1.totMemAccLat             5301704755                       # Total ticks spent from burst creation until serviced by the DRAM
system.mem_ctrls1.totBusLat                 422655000                       # Total ticks spent in databus transfers
system.mem_ctrls1.avgQLat                    43969.06                       # Average queueing delay per DRAM burst
system.mem_ctrls1.avgBusLat                   5000.00                       # Average bus latency per DRAM burst
system.mem_ctrls1.avgMemAccLat               62719.06                       # Average memory access latency per DRAM burst
system.mem_ctrls1.avgRdBW                        4.96                       # Average DRAM read bandwidth in MiByte/s
system.mem_ctrls1.avgWrBW                        0.64                       # Average achieved write bandwidth in MiByte/s
system.mem_ctrls1.avgRdBWSys                     4.96                       # Average system read bandwidth in MiByte/s
system.mem_ctrls1.avgWrBWSys                     0.64                       # Average system write bandwidth in MiByte/s
system.mem_ctrls1.peakBW                     12800.00                       # Theoretical peak bandwidth in MiByte/s
system.mem_ctrls1.busUtil                        0.04                       # Data bus utilization in percentage
system.mem_ctrls1.busUtilRead                    0.04                       # Data bus utilization in percentage for reads
system.mem_ctrls1.busUtilWrite                   0.00                       # Data bus utilization in percentage for writes
system.mem_ctrls1.avgRdQLen                      1.00                       # Average read queue length when enqueuing
system.mem_ctrls1.avgWrQLen                     17.77                       # Average write queue length when enqueuing
system.mem_ctrls1.readRowHits                   46353                       # Number of row buffer hits during reads
system.mem_ctrls1.writeRowHits                   1658                       # Number of row buffer hits during writes
system.mem_ctrls1.readRowHitRate                54.84                       # Row buffer hit rate for reads
system.mem_ctrls1.writeRowHitRate               15.19                       # Row buffer hit rate for writes
system.mem_ctrls1.avgGap                  11421046.01                       # Average gap between requests
system.mem_ctrls1.pageHitRate                   50.30                       # Row buffer hit rate, read and write combined
system.mem_ctrls1_0.actEnergy               170481780                       # Energy for activate commands per rank (pJ)
system.mem_ctrls1_0.preEnergy                90609420                       # Energy for precharge commands per rank (pJ)
system.mem_ctrls1_0.readEnergy              299644380                       # Energy for read commands per rank (pJ)
system.mem_ctrls1_0.writeEnergy              27796500                       # Energy for write commands per rank (pJ)
system.mem_ctrls1_0.refreshEnergy        7129209360.000002                       # Energy for refresh commands per rank (pJ)
system.mem_ctrls1_0.actBackEnergy          2331086250                       # Energy for active background per rank (pJ)
system.mem_ctrls1_0.preBackEnergy           342834240                       # Energy for precharge background per rank (pJ)
system.mem_ctrls1_0.actPowerDownEnergy    20230031880                       # Energy for active power-down per rank (pJ)
system.mem_ctrls1_0.prePowerDownEnergy     9368342880                       # Energy for precharge power-down per rank (pJ)
system.mem_ctrls1_0.selfRefreshEnergy    245001142530                       # Energy for self refresh per rank (pJ)
system.mem_ctrls1_0.totalEnergy          284993347650                       # Total energy per rank (pJ)
system.mem_ctrls1_0.averagePower           261.302064                       # Core power per rank (mW)
system.mem_ctrls1_0.totalIdleTime        1084655026637                       # Total Idle time Per DRAM Rank
system.mem_ctrls1_0.memoryStateTime::IDLE    614009263                       # Time in different power states
system.mem_ctrls1_0.memoryStateTime::REF   3028862000                       # Time in different power states
system.mem_ctrls1_0.memoryStateTime::SREF 1015895824473                       # Time in different power states
system.mem_ctrls1_0.memoryStateTime::PRE_PDN  24396918132                       # Time in different power states
system.mem_ctrls1_0.memoryStateTime::ACT   2366525459                       # Time in different power states
system.mem_ctrls1_0.memoryStateTime::ACT_PDN  44364133309                       # Time in different power states
system.mem_ctrls1_1.actEnergy               168018480                       # Energy for activate commands per rank (pJ)
system.mem_ctrls1_1.preEnergy                89303940                       # Energy for precharge commands per rank (pJ)
system.mem_ctrls1_1.readEnergy              303906960                       # Energy for read commands per rank (pJ)
system.mem_ctrls1_1.writeEnergy              29044080                       # Energy for write commands per rank (pJ)
system.mem_ctrls1_1.refreshEnergy        7137199680.000002                       # Energy for refresh commands per rank (pJ)
system.mem_ctrls1_1.actBackEnergy          2358114510                       # Energy for active background per rank (pJ)
system.mem_ctrls1_1.preBackEnergy           343353600                       # Energy for precharge background per rank (pJ)
system.mem_ctrls1_1.actPowerDownEnergy    20230169820                       # Energy for active power-down per rank (pJ)
system.mem_ctrls1_1.prePowerDownEnergy     9307543680                       # Energy for precharge power-down per rank (pJ)
system.mem_ctrls1_1.selfRefreshEnergy    245039575935                       # Energy for self refresh per rank (pJ)
system.mem_ctrls1_1.totalEnergy          285008775465                       # Total energy per rank (pJ)
system.mem_ctrls1_1.averagePower           261.316209                       # Core power per rank (mW)
system.mem_ctrls1_1.totalIdleTime        1084579617900                       # Total Idle time Per DRAM Rank
system.mem_ctrls1_1.memoryStateTime::IDLE    617255372                       # Time in different power states
system.mem_ctrls1_1.memoryStateTime::REF   3032350000                       # Time in different power states
system.mem_ctrls1_1.memoryStateTime::SREF 1015992364386                       # Time in different power states
system.mem_ctrls1_1.memoryStateTime::PRE_PDN  24238376802                       # Time in different power states
system.mem_ctrls1_1.memoryStateTime::ACT   2421244941                       # Time in different power states
system.mem_ctrls1_1.memoryStateTime::ACT_PDN  44364681135                       # Time in different power states
system.pwrStateResidencyTicks::UNDEFINED 31102080433686                       # Cumulative time (in ticks) in various power states
system.cpu.branchPred.lookups                       6                       # Number of BP lookups
system.cpu.branchPred.condPredicted                 3                       # Number of conditional branches predicted
system.cpu.branchPred.condIncorrect                 3                       # Number of conditional branches incorrect
system.cpu.branchPred.BTBLookups                    3                       # Number of BTB lookups
system.cpu.branchPred.BTBHits                       0                       # Number of BTB hits
system.cpu.branchPred.BTBCorrect                    0                       # Number of correct BTB predictions (this stat may not work properly.
system.cpu.branchPred.BTBHitPct              0.000000                       # BTB Hit Percentage
system.cpu.branchPred.usedRAS                       0                       # Number of times the RAS was used to get a target.
system.cpu.branchPred.RASInCorrect                  0                       # Number of incorrect RAS predictions.
system.cpu.branchPred.indirectLookups               1                       # Number of indirect predictor lookups.
system.cpu.branchPred.indirectHits                  0                       # Number of indirect target hits.
system.cpu.branchPred.indirectMisses                1                       # Number of indirect misses.
system.cpu.branchPredindirectMispredicted            1                       # Number of mispredicted indirect branches.
system.cpu_voltage_domain.voltage                   1                       # Voltage in Volts
system.cpu_clk_domain.clock                       333                       # Clock period in ticks
system.cpu.dtb.fetch_hits                           0                       # ITB hits
system.cpu.dtb.fetch_misses                         0                       # ITB misses
system.cpu.dtb.fetch_acv                            0                       # ITB acv
system.cpu.dtb.fetch_accesses                       0                       # ITB accesses
system.cpu.dtb.read_hits                            5                       # DTB read hits
system.cpu.dtb.read_misses                          0                       # DTB read misses
system.cpu.dtb.read_acv                             0                       # DTB read access violations
system.cpu.dtb.read_accesses                        5                       # DTB read accesses
system.cpu.dtb.write_hits                           0                       # DTB write hits
system.cpu.dtb.write_misses                         0                       # DTB write misses
system.cpu.dtb.write_acv                            0                       # DTB write access violations
system.cpu.dtb.write_accesses                       0                       # DTB write accesses
system.cpu.dtb.data_hits                            5                       # DTB hits
system.cpu.dtb.data_misses                          0                       # DTB misses
system.cpu.dtb.data_acv                             0                       # DTB access violations
system.cpu.dtb.data_accesses                        5                       # DTB accesses
system.cpu.itb.fetch_hits                           7                       # ITB hits
system.cpu.itb.fetch_misses                         0                       # ITB misses
system.cpu.itb.fetch_acv                            0                       # ITB acv
system.cpu.itb.fetch_accesses                       7                       # ITB accesses
system.cpu.itb.read_hits                            0                       # DTB read hits
system.cpu.itb.read_misses                          0                       # DTB read misses
system.cpu.itb.read_acv                             0                       # DTB read access violations
system.cpu.itb.read_accesses                        0                       # DTB read accesses
system.cpu.itb.write_hits                           0                       # DTB write hits
system.cpu.itb.write_misses                         0                       # DTB write misses
system.cpu.itb.write_acv                            0                       # DTB write access violations
system.cpu.itb.write_accesses                       0                       # DTB write accesses
system.cpu.itb.data_hits                            0                       # DTB hits
system.cpu.itb.data_misses                          0                       # DTB misses
system.cpu.itb.data_acv                             0                       # DTB access violations
system.cpu.itb.data_accesses                        0                       # DTB accesses
system.cpu.workload.num_syscalls                    9                       # Number of system calls
system.cpu.pwrStateResidencyTicks::ON    1090666272636                       # Cumulative time (in ticks) in various power states
system.cpu.numCycles                             1010                       # number of cpu cycles simulated
system.cpu.numWorkItemsStarted                      0                       # number of work items this cpu started
system.cpu.numWorkItemsCompleted                    0                       # number of work items this cpu completed
system.cpu.fetch.icacheStallCycles                 50                       # Number of cycles fetch is stalled on an Icache miss
system.cpu.fetch.Insts                             34                       # Number of instructions fetch has processed
system.cpu.fetch.Branches                           6                       # Number of branches that fetch encountered
system.cpu.fetch.Cycles                             5                       # Number of cycles fetch has run and was not squashing or blocked
system.cpu.fetch.SquashCycles                       9                       # Number of cycles fetch has spent squashing
system.cpu.fetch.PendingDrainCycles                 6                       # Number of cycles fetch has spent waiting on pipes to drain
system.cpu.fetch.CacheLines                         7                       # Number of cache lines fetched
system.cpu.fetch.IcacheSquashes                     4                       # Number of outstanding Icache misses that were squashed
system.cpu.fetch.rateDist::samples                 65                       # Number of instructions fetched each cycle (Total)
system.cpu.fetch.rateDist::mean              0.523077                       # Number of instructions fetched each cycle (Total)
system.cpu.fetch.rateDist::stdev             1.880057                       # Number of instructions fetched each cycle (Total)
system.cpu.fetch.rateDist::underflows               0      0.00%      0.00% # Number of instructions fetched each cycle (Total)
system.cpu.fetch.rateDist::0                       60     92.31%     92.31% # Number of instructions fetched each cycle (Total)
system.cpu.fetch.rateDist::1                        0      0.00%     92.31% # Number of instructions fetched each cycle (Total)
system.cpu.fetch.rateDist::2                        0      0.00%     92.31% # Number of instructions fetched each cycle (Total)
system.cpu.fetch.rateDist::3                        0      0.00%     92.31% # Number of instructions fetched each cycle (Total)
system.cpu.fetch.rateDist::4                        1      1.54%     93.85% # Number of instructions fetched each cycle (Total)
system.cpu.fetch.rateDist::5                        0      0.00%     93.85% # Number of instructions fetched each cycle (Total)
system.cpu.fetch.rateDist::6                        1      1.54%     95.38% # Number of instructions fetched each cycle (Total)
system.cpu.fetch.rateDist::7                        0      0.00%     95.38% # Number of instructions fetched each cycle (Total)
system.cpu.fetch.rateDist::8                        3      4.62%    100.00% # Number of instructions fetched each cycle (Total)
system.cpu.fetch.rateDist::overflows                0      0.00%    100.00% # Number of instructions fetched each cycle (Total)
system.cpu.fetch.rateDist::min_value                0                       # Number of instructions fetched each cycle (Total)
system.cpu.fetch.rateDist::max_value                8                       # Number of instructions fetched each cycle (Total)
system.cpu.fetch.rateDist::total                   65                       # Number of instructions fetched each cycle (Total)
system.cpu.fetch.branchRate                  0.005941                       # Number of branch fetches per cycle
system.cpu.fetch.rate                        0.033663                       # Number of inst fetches per cycle
system.cpu.decode.IdleCycles                       54                       # Number of cycles decode is idle
[...]
system.switch_cpus_1.iq.int_inst_queue_wakeup_accesses    235715556                       # Number of integer instruction queue wakeup accesses
system.switch_cpus_1.iq.fp_inst_queue_reads       479208                       # Number of floating instruction queue reads
system.switch_cpus_1.iq.fp_inst_queue_writes       342847                       # Number of floating instruction queue writes
system.switch_cpus_1.iq.fp_inst_queue_wakeup_accesses       212396                       # Number of floating instruction queue wakeup accesses
system.switch_cpus_1.iq.int_alu_accesses    249185062                       # Number of integer alu accesses
system.switch_cpus_1.iq.fp_alu_accesses        246140                       # Number of floating point alu accesses
system.switch_cpus_1.iew.lsq.thread0.forwLoads      8589541                       # Number of loads that had data forwarded from stores
system.switch_cpus_1.iew.lsq.thread0.invAddrLoads            0                       # Number of loads ignored due to an invalid address
system.switch_cpus_1.iew.lsq.thread0.squashedLoads     24816144                       # Number of loads squashed
system.switch_cpus_1.iew.lsq.thread0.ignoredResponses        42017                       # Number of memory responses ignored because the instruction is squashed
system.switch_cpus_1.iew.lsq.thread0.memOrderViolation        82086                       # Number of memory ordering violations
system.switch_cpus_1.iew.lsq.thread0.squashedStores     10625419                       # Number of stores squashed
system.switch_cpus_1.iew.lsq.thread0.invAddrSwpfs            0                       # Number of software prefetches ignored due to an invalid address
system.switch_cpus_1.iew.lsq.thread0.blockedLoads            0                       # Number of blocked loads due to partial load-store forwarding
system.switch_cpus_1.iew.lsq.thread0.rescheduledLoads           44                       # Number of loads that were rescheduled
system.switch_cpus_1.iew.lsq.thread0.cacheBlocked       156980                       # Number of times an access to memory failed due to the cache being blocked
system.switch_cpus_1.iew.iewIdleCycles              0                       # Number of cycles IEW is idle
system.switch_cpus_1.iew.iewSquashCycles      2088032                       # Number of cycles IEW is squashing
system.switch_cpus_1.iew.iewBlockCycles      20614504                       # Number of cycles IEW is blocking
system.switch_cpus_1.iew.iewUnblockCycles     15662049                       # Number of cycles IEW is unblocking
system.switch_cpus_1.iew.iewDispatchedInsts    281002350                       # Number of instructions dispatched to IQ
system.switch_cpus_1.iew.iewDispSquashedInsts       646293                       # Number of squashed instructions skipped by dispatch
system.switch_cpus_1.iew.iewDispLoadInsts     89923672                       # Number of dispatched load instructions
system.switch_cpus_1.iew.iewDispStoreInsts     38797380                       # Number of dispatched store instructions
system.switch_cpus_1.iew.iewDispNonSpecInsts        84787                       # Number of dispatched non-speculative instructions
system.switch_cpus_1.iew.iewIQFullEvents       348105                       # Number of times the IQ has become full, causing a stall
system.switch_cpus_1.iew.iewLSQFullEvents     15334882                       # Number of times the LSQ has become full, causing a stall
system.switch_cpus_1.iew.memOrderViolationEvents        82086                       # Number of memory order violations
system.switch_cpus_1.iew.predictedTakenIncorrect       942351                       # Number of branches that were predicted taken incorrectly
system.switch_cpus_1.iew.predictedNotTakenIncorrect       735838                       # Number of branches that were predicted not taken incorrectly
system.switch_cpus_1.iew.branchMispredicts      1678189                       # Number of branch mispredicts detected at execute
system.switch_cpus_1.iew.iewExecutedInsts    239289868                       # Number of executed instructions
system.switch_cpus_1.iew.iewExecLoadInsts     78338982                       # Number of load instructions executed
system.switch_cpus_1.iew.iewExecSquashedInsts      2920935                       # Number of squashed instructions skipped in execute
system.switch_cpus_1.iew.exec_swp                   0                       # number of swp insts executed
system.switch_cpus_1.iew.exec_nop             6952270                       # number of nop insts executed
system.switch_cpus_1.iew.exec_refs          112510488                       # number of memory reference insts executed
system.switch_cpus_1.iew.exec_branches       39871640                       # Number of branches executed
system.switch_cpus_1.iew.exec_stores         34171506                       # Number of stores executed
system.switch_cpus_1.iew.exec_rate           1.081958                       # Inst execution rate
system.switch_cpus_1.iew.wb_sent            237843143                       # cumulative count of insts sent to commit
system.switch_cpus_1.iew.wb_count           235927952                       # cumulative count of insts written-back
system.switch_cpus_1.iew.wb_producers       131508508                       # num instructions producing a value
system.switch_cpus_1.iew.wb_consumers       175054594                       # num instructions consuming a value
system.switch_cpus_1.iew.wb_rate             1.066757                       # insts written-back per cycle
system.switch_cpus_1.iew.wb_fanout           0.751243                       # average fanout of values written-back
system.switch_cpus_1.commit.commitSquashedInsts     68195302                       # The number of squashed insts skipped by commit
system.switch_cpus_1.commit.commitNonSpecStalls       131982                       # The number of times commit has been forced to stall to communicate backwards
system.switch_cpus_1.commit.branchMispredicts      1468127                       # The number of times a branch was mispredicted
system.switch_cpus_1.commit.committed_per_cycle::samples    188875330                       # Number of insts commited each cycle
system.switch_cpus_1.commit.committed_per_cycle::mean     1.084155                       # Number of insts commited each cycle
system.switch_cpus_1.commit.committed_per_cycle::stdev     2.192525                       # Number of insts commited each cycle
system.switch_cpus_1.commit.committed_per_cycle::underflows            0      0.00%      0.00% # Number of insts commited each cycle
system.switch_cpus_1.commit.committed_per_cycle::0    127507417     67.51%     67.51% # Number of insts commited each cycle
system.switch_cpus_1.commit.committed_per_cycle::1     25468798     13.48%     80.99% # Number of insts commited each cycle
system.switch_cpus_1.commit.committed_per_cycle::2      9021111      4.78%     85.77% # Number of insts commited each cycle
system.switch_cpus_1.commit.committed_per_cycle::3      4133621      2.19%     87.96% # Number of insts commited each cycle
system.switch_cpus_1.commit.committed_per_cycle::4      3881117      2.05%     90.01% # Number of insts commited each cycle
system.switch_cpus_1.commit.committed_per_cycle::5      3301540      1.75%     91.76% # Number of insts commited each cycle
system.switch_cpus_1.commit.committed_per_cycle::6      2816174      1.49%     93.25% # Number of insts commited each cycle
system.switch_cpus_1.commit.committed_per_cycle::7      2035466      1.08%     94.33% # Number of insts commited each cycle
system.switch_cpus_1.commit.committed_per_cycle::8     10710086      5.67%    100.00% # Number of insts commited each cycle
system.switch_cpus_1.commit.committed_per_cycle::overflows            0      0.00%    100.00% # Number of insts commited each cycle
system.switch_cpus_1.commit.committed_per_cycle::min_value            0                       # Number of insts commited each cycle
system.switch_cpus_1.commit.committed_per_cycle::max_value            8                       # Number of insts commited each cycle
system.switch_cpus_1.commit.committed_per_cycle::total    188875330                       # Number of insts commited each cycle
system.switch_cpus_1.commit.committedInsts    204770045                       # Number of instructions committed
system.switch_cpus_1.commit.committedOps    204770045                       # Number of ops (including micro ops) committed
system.switch_cpus_1.commit.swp_count               0                       # Number of s/w prefetches committed
system.switch_cpus_1.commit.refs             93279484                       # Number of memory references committed
system.switch_cpus_1.commit.loads            65107527                       # Number of loads committed
system.switch_cpus_1.commit.membars             65988                       # Number of memory barriers committed
system.switch_cpus_1.commit.branches         33714070                       # Number of branches committed
system.switch_cpus_1.commit.fp_insts           159557                       # Number of committed floating point instructions.
system.switch_cpus_1.commit.int_insts       196778837                       # Number of committed integer instructions.
system.switch_cpus_1.commit.function_calls      2336737                       # Number of function calls committed.
system.switch_cpus_1.commit.op_class_0::No_OpClass      4770592      2.33%      2.33% # Class of committed instruction
system.switch_cpus_1.commit.op_class_0::IntAlu    106615487     52.07%     54.40% # Class of committed instruction
system.switch_cpus_1.commit.op_class_0::IntMult         2354      0.00%     54.40% # Class of committed instruction
system.switch_cpus_1.commit.op_class_0::IntDiv            0      0.00%     54.40% # Class of committed instruction
system.switch_cpus_1.commit.op_class_0::FloatAdd        29677      0.01%     54.41% # Class of committed instruction
system.switch_cpus_1.commit.op_class_0::FloatCmp         2802      0.00%     54.41% # Class of committed instruction
system.switch_cpus_1.commit.op_class_0::FloatCvt         2757      0.00%     54.41% # Class of committed instruction
system.switch_cpus_1.commit.op_class_0::FloatMult          480      0.00%     54.41% # Class of committed instruction
system.switch_cpus_1.commit.op_class_0::FloatMultAcc            0      0.00%     54.41% # Class of committed instruction
system.switch_cpus_1.commit.op_class_0::FloatDiv          424      0.00%     54.41% # Class of committed instruction
system.switch_cpus_1.commit.op_class_0::FloatMisc            0      0.00%     54.41% # Class of committed instruction
system.switch_cpus_1.commit.op_class_0::FloatSqrt            0      0.00%     54.41% # Class of committed instruction
system.switch_cpus_1.commit.op_class_0::SimdAdd            0      0.00%     54.41% # Class of committed instruction
system.switch_cpus_1.commit.op_class_0::SimdAddAcc            0      0.00%     54.41% # Class of committed instruction
system.switch_cpus_1.commit.op_class_0::SimdAlu            0      0.00%     54.41% # Class of committed instruction
system.switch_cpus_1.commit.op_class_0::SimdCmp            0      0.00%     54.41% # Class of committed instruction
system.switch_cpus_1.commit.op_class_0::SimdCvt            0      0.00%     54.41% # Class of committed instruction
system.switch_cpus_1.commit.op_class_0::SimdMisc            0      0.00%     54.41% # Class of committed instruction
system.switch_cpus_1.commit.op_class_0::SimdMult            0      0.00%     54.41% # Class of committed instruction
system.switch_cpus_1.commit.op_class_0::SimdMultAcc            0      0.00%     54.41% # Class of committed instruction
system.switch_cpus_1.commit.op_class_0::SimdShift            0      0.00%     54.41% # Class of committed instruction
system.switch_cpus_1.commit.op_class_0::SimdShiftAcc            0      0.00%     54.41% # Class of committed instruction
system.switch_cpus_1.commit.op_class_0::SimdSqrt            0      0.00%     54.41% # Class of committed instruction
system.switch_cpus_1.commit.op_class_0::SimdFloatAdd            0      0.00%     54.41% # Class of committed instruction
system.switch_cpus_1.commit.op_class_0::SimdFloatAlu            0      0.00%     54.41% # Class of committed instruction
system.switch_cpus_1.commit.op_class_0::SimdFloatCmp            0      0.00%     54.41% # Class of committed instruction
system.switch_cpus_1.commit.op_class_0::SimdFloatCvt            0      0.00%     54.41% # Class of committed instruction
system.switch_cpus_1.commit.op_class_0::SimdFloatDiv            0      0.00%     54.41% # Class of committed instruction
system.switch_cpus_1.commit.op_class_0::SimdFloatMisc            0      0.00%     54.41% # Class of committed instruction
system.switch_cpus_1.commit.op_class_0::SimdFloatMult            0      0.00%     54.41% # Class of committed instruction
system.switch_cpus_1.commit.op_class_0::SimdFloatMultAcc            0      0.00%     54.41% # Class of committed instruction
system.switch_cpus_1.commit.op_class_0::SimdFloatSqrt            0      0.00%     54.41% # Class of committed instruction
system.switch_cpus_1.commit.op_class_0::MemRead     65122112     31.80%     86.22% # Class of committed instruction
system.switch_cpus_1.commit.op_class_0::MemWrite     28099943     13.72%     99.94% # Class of committed instruction
system.switch_cpus_1.commit.op_class_0::FloatMemRead        51403      0.03%     99.96% # Class of committed instruction
system.switch_cpus_1.commit.op_class_0::FloatMemWrite        72014      0.04%    100.00% # Class of committed instruction
system.switch_cpus_1.commit.op_class_0::IprAccess            0      0.00%    100.00% # Class of committed instruction
system.switch_cpus_1.commit.op_class_0::InstPrefetch            0      0.00%    100.00% # Class of committed instruction
system.switch_cpus_1.commit.op_class_0::total    204770045                       # Class of committed instruction
system.switch_cpus_1.commit.bw_lim_events     10710086                       # number cycles where commit BW limit reached
system.switch_cpus_1.rob.rob_reads          443904762                       # The number of ROB reads
system.switch_cpus_1.rob.rob_writes         555945457                       # The number of ROB writes
system.switch_cpus_1.timesIdled               1321930                       # Number of times that the entire CPU went into an idle state and unscheduled itself
system.switch_cpus_1.idleCycles              22296215                       # Total number of cycles that the CPU has spent unscheduled due to idling
system.switch_cpus_1.committedInsts         200000002                       # Number of Instructions Simulated
system.switch_cpus_1.committedOps           200000002                       # Number of Ops (including micro ops) Simulated
system.switch_cpus_1.cpi                     1.105819                       # CPI: Cycles Per Instruction
system.switch_cpus_1.cpi_total               1.105819                       # CPI: Total CPI of All Threads
system.switch_cpus_1.ipc                     0.904307                       # IPC: Instructions Per Cycle
system.switch_cpus_1.ipc_total               0.904307                       # IPC: Total IPC of All Threads
system.switch_cpus_1.int_regfile_reads      304324391                       # number of integer regfile reads
system.switch_cpus_1.int_regfile_writes     165745092                       # number of integer regfile writes
system.switch_cpus_1.fp_regfile_reads          179874                       # number of floating regfile reads
system.switch_cpus_1.fp_regfile_writes         106235                       # number of floating regfile writes
system.switch_cpus_1.misc_regfile_reads        151467                       # number of misc regfile reads
system.switch_cpus_1.misc_regfile_writes       132243                       # number of misc regfile writes
system.tol3bus.snoop_filter.tot_requests      1296326                       # Total number of requests made to the snoop filter.
system.tol3bus.snoop_filter.hit_single_requests       646133                       # Number of requests hitting in the snoop filter with a single holder of the requested data.
system.tol3bus.snoop_filter.hit_multi_requests            0                       # Number of requests hitting in the snoop filter with multiple (>1) holders of the requested data.
system.tol3bus.snoop_filter.tot_snoops            639                       # Total number of snoops made to the snoop filter.
system.tol3bus.snoop_filter.hit_single_snoops          639                       # Number of snoops hitting in the snoop filter with a single holder of the requested data.
system.tol3bus.snoop_filter.hit_multi_snoops            0                       # Number of snoops hitting in the snoop filter with multiple (>1) holders of the requested data.
system.tol3bus.pwrStateResidencyTicks::UNDEFINED 31102080433686                       # Cumulative time (in ticks) in various power states
system.tol3bus.trans_dist::ReadResp            579184                       # Transaction distribution
system.tol3bus.trans_dist::WritebackDirty       197014                       # Transaction distribution
system.tol3bus.trans_dist::CleanEvict          552365                       # Transaction distribution
system.tol3bus.trans_dist::UpgradeReq               1                       # Transaction distribution
system.tol3bus.trans_dist::UpgradeResp              1                       # Transaction distribution
system.tol3bus.trans_dist::ReadExReq            71009                       # Transaction distribution
system.tol3bus.trans_dist::ReadExResp           71009                       # Transaction distribution
system.tol3bus.trans_dist::ReadSharedReq       579184                       # Transaction distribution
system.tol3bus.pkt_count_system.cpu.l2.mem_side::system.l3.cpu_side      1946520                       # Packet count per connected master and slave (bytes)
system.tol3bus.pkt_size_system.cpu.l2.mem_side::system.l3.cpu_side     52822976                       # Cumulative packet size per connected master and slave (bytes)
system.tol3bus.snoops                          103247                       # Total snoops (count)
system.tol3bus.snoopTraffic                   1398272                       # Total snoop traffic (bytes)
system.tol3bus.snoop_fanout::samples           753441                       # Request fanout histogram
system.tol3bus.snoop_fanout::mean            0.000848                       # Request fanout histogram
system.tol3bus.snoop_fanout::stdev           0.029110                       # Request fanout histogram
system.tol3bus.snoop_fanout::underflows             0      0.00%      0.00% # Request fanout histogram
system.tol3bus.snoop_fanout::0                 752802     99.92%     99.92% # Request fanout histogram
system.tol3bus.snoop_fanout::1                    639      0.08%    100.00% # Request fanout histogram
system.tol3bus.snoop_fanout::overflows              0      0.00%    100.00% # Request fanout histogram
system.tol3bus.snoop_fanout::min_value              0                       # Request fanout histogram
system.tol3bus.snoop_fanout::max_value              1                       # Request fanout histogram
system.tol3bus.snoop_fanout::total             753441                       # Request fanout histogram
system.tol3bus.reqLayer0.occupancy          490006836                       # Layer occupancy (ticks)
system.tol3bus.reqLayer0.utilization              0.0                       # Layer utilization (%)
system.tol3bus.respLayer0.occupancy         433028871                       # Layer occupancy (ticks)
system.tol3bus.respLayer0.utilization             0.0                       # Layer utilization (%)

---------- End Simulation Statistics   ----------
