
---------- Begin Simulation Statistics ----------
sim_seconds                                  2.662460                       # Number of seconds simulated
sim_ticks                                2662459932942                       # Number of ticks simulated
final_tick                               146139448250016                       # Number of ticks from beginning of simulation (restored from checkpoints and never reset)
sim_freq                                 1000000000000                       # Frequency of simulated ticks
host_inst_rate                                 309538                       # Simulator instruction rate (inst/s)
host_op_rate                                   309538                       # Simulator op (including micro ops) rate (op/s)
host_tick_rate                              686777681                       # Simulator tick rate (ticks/s)
host_mem_usage                                2540960                       # Number of bytes of host memory used
host_seconds                                  3876.74                       # Real time elapsed on the host
sim_insts                                  1200000006                       # Number of instructions simulated
sim_ops                                    1200000006                       # Number of ops (including micro ops) simulated
system.voltage_domain.voltage                       1                       # Voltage in Volts
system.clk_domain.clock                          1000                       # Clock period in ticks
system.mem_ctrls0.pwrStateResidencyTicks::UNDEFINED 146139448250016                       # Cumulative time (in ticks) in various power states
system.mem_ctrls0.bytes_read::cpu.inst            128                       # Number of bytes read from this memory
system.mem_ctrls0.bytes_read::cpu.data            256                       # Number of bytes read from this memory
system.mem_ctrls0.bytes_read::switch_cpus.inst        20864                       # Number of bytes read from this memory
system.mem_ctrls0.bytes_read::switch_cpus.data    477352000                       # Number of bytes read from this memory
system.mem_ctrls0.bytes_read::switch_cpus_1.inst         6720                       # Number of bytes read from this memory
system.mem_ctrls0.bytes_read::switch_cpus_1.data     85210752                       # Number of bytes read from this memory
system.mem_ctrls0.bytes_read::total         562590720                       # Number of bytes read from this memory
system.mem_ctrls0.bytes_inst_read::cpu.inst          128                       # Number of instructions bytes read from this memory
system.mem_ctrls0.bytes_inst_read::switch_cpus.inst        20864                       # Number of instructions bytes read from this memory
system.mem_ctrls0.bytes_inst_read::switch_cpus_1.inst         6720                       # Number of instructions bytes read from this memory
system.mem_ctrls0.bytes_inst_read::total        27712                       # Number of instructions bytes read from this memory
system.mem_ctrls0.bytes_written::writebacks    280533312                       # Number of bytes written to this memory
system.mem_ctrls0.bytes_written::total      280533312                       # Number of bytes written to this memory
system.mem_ctrls0.num_reads::cpu.inst               2                       # Number of read requests responded to by this memory
system.mem_ctrls0.num_reads::cpu.data               4                       # Number of read requests responded to by this memory
system.mem_ctrls0.num_reads::switch_cpus.inst          326                       # Number of read requests responded to by this memory
system.mem_ctrls0.num_reads::switch_cpus.data      7458625                       # Number of read requests responded to by this memory
system.mem_ctrls0.num_reads::switch_cpus_1.inst          105                       # Number of read requests responded to by this memory
system.mem_ctrls0.num_reads::switch_cpus_1.data      1331418                       # Number of read requests responded to by this memory
system.mem_ctrls0.num_reads::total            8790480                       # Number of read requests responded to by this memory
system.mem_ctrls0.num_writes::writebacks      4383333                       # Number of write requests responded to by this memory
system.mem_ctrls0.num_writes::total           4383333                       # Number of write requests responded to by this memory
system.mem_ctrls0.bw_read::cpu.inst                48                       # Total read bandwidth from this memory (bytes/s)
system.mem_ctrls0.bw_read::cpu.data                96                       # Total read bandwidth from this memory (bytes/s)
system.mem_ctrls0.bw_read::switch_cpus.inst         7836                       # Total read bandwidth from this memory (bytes/s)
system.mem_ctrls0.bw_read::switch_cpus.data    179289834                       # Total read bandwidth from this memory (bytes/s)
system.mem_ctrls0.bw_read::switch_cpus_1.inst         2524                       # Total read bandwidth from this memory (bytes/s)
system.mem_ctrls0.bw_read::switch_cpus_1.data     32004520                       # Total read bandwidth from this memory (bytes/s)
system.mem_ctrls0.bw_read::total            211304859                       # Total read bandwidth from this memory (bytes/s)
system.mem_ctrls0.bw_inst_read::cpu.inst           48                       # Instruction read bandwidth from this memory (bytes/s)
system.mem_ctrls0.bw_inst_read::switch_cpus.inst         7836                       # Instruction read bandwidth from this memory (bytes/s)
system.mem_ctrls0.bw_inst_read::switch_cpus_1.inst         2524                       # Instruction read bandwidth from this memory (bytes/s)
system.mem_ctrls0.bw_inst_read::total           10408                       # Instruction read bandwidth from this memory (bytes/s)
system.mem_ctrls0.bw_write::writebacks      105366210                       # Write bandwidth from this memory (bytes/s)
system.mem_ctrls0.bw_write::total           105366210                       # Write bandwidth from this memory (bytes/s)
system.mem_ctrls0.bw_total::writebacks      105366210                       # Total bandwidth to/from this memory (bytes/s)
system.mem_ctrls0.bw_total::cpu.inst               48                       # Total bandwidth to/from this memory (bytes/s)
system.mem_ctrls0.bw_total::cpu.data               96                       # Total bandwidth to/from this memory (bytes/s)
system.mem_ctrls0.bw_total::switch_cpus.inst         7836                       # Total bandwidth to/from this memory (bytes/s)
system.mem_ctrls0.bw_total::switch_cpus.data    179289834                       # Total bandwidth to/from this memory (bytes/s)
system.mem_ctrls0.bw_total::switch_cpus_1.inst         2524                       # Total bandwidth to/from this memory (bytes/s)
system.mem_ctrls0.bw_total::switch_cpus_1.data     32004520                       # Total bandwidth to/from this memory (bytes/s)
system.mem_ctrls0.bw_total::total           316671069                       # Total bandwidth to/from this memory (bytes/s)
system.mem_ctrls0.readReqs                    8790480                       # Number of read requests accepted
system.mem_ctrls0.writeReqs                   4383333                       # Number of write requests accepted
system.mem_ctrls0.readBursts                  8790480                       # Number of DRAM read bursts, including those serviced by the write queue
system.mem_ctrls0.writeBursts                 4383333                       # Number of DRAM write bursts, including those merged in the write queue
system.mem_ctrls0.bytesReadDRAM             562589120                       # Total number of bytes read from DRAM
system.mem_ctrls0.bytesReadWrQ                   1600                       # Total number of bytes read from write queue
system.mem_ctrls0.bytesWritten              280531456                       # Total number of bytes written to DRAM
system.mem_ctrls0.bytesReadSys              562590720                       # Total read bytes from the system interface side
system.mem_ctrls0.bytesWrittenSys           280533312                       # Total written bytes from the system interface side
system.mem_ctrls0.servicedByWrQ                    25                       # Number of DRAM read bursts serviced by the write queue
system.mem_ctrls0.mergedWrBursts                    0                       # Number of DRAM write bursts merged with an existing one
system.mem_ctrls0.neitherReadNorWriteReqs            0                       # Number of requests that are neither read nor write
system.mem_ctrls0.perBankRdBursts::0           548938                       # Per bank write bursts
system.mem_ctrls0.perBankRdBursts::1           547861                       # Per bank write bursts
system.mem_ctrls0.perBankRdBursts::2           549317                       # Per bank write bursts
system.mem_ctrls0.perBankRdBursts::3           551427                       # Per bank write bursts
system.mem_ctrls0.perBankRdBursts::4           550618                       # Per bank write bursts
system.mem_ctrls0.perBankRdBursts::5           548748                       # Per bank write bursts
system.mem_ctrls0.perBankRdBursts::6           548596                       # Per bank write bursts
system.mem_ctrls0.perBankRdBursts::7           549766                       # Per bank write bursts
system.mem_ctrls0.perBankRdBursts::8           550458                       # Per bank write bursts
system.mem_ctrls0.perBankRdBursts::9           548105                       # Per bank write bursts
system.mem_ctrls0.perBankRdBursts::10          546925                       # Per bank write bursts
system.mem_ctrls0.perBankRdBursts::11          549819                       # Per bank write bursts
system.mem_ctrls0.perBankRdBursts::12          550314                       # Per bank write bursts
system.mem_ctrls0.perBankRdBursts::13          550301                       # Per bank write bursts
system.mem_ctrls0.perBankRdBursts::14          550274                       # Per bank write bursts
system.mem_ctrls0.perBankRdBursts::15          548988                       # Per bank write bursts
system.mem_ctrls0.perBankWrBursts::0           275361                       # Per bank write bursts
system.mem_ctrls0.perBankWrBursts::1           273971                       # Per bank write bursts
system.mem_ctrls0.perBankWrBursts::2           273434                       # Per bank write bursts
system.mem_ctrls0.perBankWrBursts::3           274118                       # Per bank write bursts
system.mem_ctrls0.perBankWrBursts::4           274285                       # Per bank write bursts
system.mem_ctrls0.perBankWrBursts::5           273940                       # Per bank write bursts
system.mem_ctrls0.perBankWrBursts::6           273837                       # Per bank write bursts
system.mem_ctrls0.perBankWrBursts::7           273426                       # Per bank write bursts
system.mem_ctrls0.perBankWrBursts::8           273122                       # Per bank write bursts
system.mem_ctrls0.perBankWrBursts::9           272937                       # Per bank write bursts
system.mem_ctrls0.perBankWrBursts::10          273871                       # Per bank write bursts
system.mem_ctrls0.perBankWrBursts::11          275390                       # Per bank write bursts
system.mem_ctrls0.perBankWrBursts::12          274273                       # Per bank write bursts
system.mem_ctrls0.perBankWrBursts::13          273012                       # Per bank write bursts
system.mem_ctrls0.perBankWrBursts::14          273415                       # Per bank write bursts
system.mem_ctrls0.perBankWrBursts::15          274912                       # Per bank write bursts
system.mem_ctrls0.numRdRetry                        0                       # Number of times read queue was full causing retry
system.mem_ctrls0.numWrRetry                        0                       # Number of times write queue was full causing retry
system.mem_ctrls0.totGap                 2662459910631                       # Total gap between requests
system.mem_ctrls0.readPktSize::0                    0                       # Read request sizes (log2)
system.mem_ctrls0.readPktSize::1                    0                       # Read request sizes (log2)
system.mem_ctrls0.readPktSize::2                    0                       # Read request sizes (log2)
system.mem_ctrls0.readPktSize::3                    0                       # Read request sizes (log2)
system.mem_ctrls0.readPktSize::4                    0                       # Read request sizes (log2)
system.mem_ctrls0.readPktSize::5                    0                       # Read request sizes (log2)
system.mem_ctrls0.readPktSize::6              8790480                       # Read request sizes (log2)
system.mem_ctrls0.writePktSize::0                   0                       # Write request sizes (log2)
system.mem_ctrls0.writePktSize::1                   0                       # Write request sizes (log2)
system.mem_ctrls0.writePktSize::2                   0                       # Write request sizes (log2)
system.mem_ctrls0.writePktSize::3                   0                       # Write request sizes (log2)
system.mem_ctrls0.writePktSize::4                   0                       # Write request sizes (log2)
system.mem_ctrls0.writePktSize::5                   0                       # Write request sizes (log2)
system.mem_ctrls0.writePktSize::6             4383333                       # Write request sizes (log2)
system.mem_ctrls0.rdQLenPdf::0                8319205                       # What read queue length does an incoming req see
system.mem_ctrls0.rdQLenPdf::1                 339208                       # What read queue length does an incoming req see
system.mem_ctrls0.rdQLenPdf::2                 112733                       # What read queue length does an incoming req see
system.mem_ctrls0.rdQLenPdf::3                  19307                       # What read queue length does an incoming req see
system.mem_ctrls0.rdQLenPdf::4                      2                       # What read queue length does an incoming req see
system.mem_ctrls0.rdQLenPdf::5                      0                       # What read queue length does an incoming req see
system.mem_ctrls0.rdQLenPdf::6                      0                       # What read queue length does an incoming req see
system.mem_ctrls0.rdQLenPdf::7                      0                       # What read queue length does an incoming req see
system.mem_ctrls0.rdQLenPdf::8                      0                       # What read queue length does an incoming req see
system.mem_ctrls0.rdQLenPdf::9                      0                       # What read queue length does an incoming req see
system.mem_ctrls0.rdQLenPdf::10                     0                       # What read queue length does an incoming req see
system.mem_ctrls0.rdQLenPdf::11                     0                       # What read queue length does an incoming req see
system.mem_ctrls0.rdQLenPdf::12                     0                       # What read queue length does an incoming req see
system.mem_ctrls0.rdQLenPdf::13                     0                       # What read queue length does an incoming req see
system.mem_ctrls0.rdQLenPdf::14                     0                       # What read queue length does an incoming req see
system.mem_ctrls0.rdQLenPdf::15                     0                       # What read queue length does an incoming req see
system.mem_ctrls0.rdQLenPdf::16                     0                       # What read queue length does an incoming req see
system.mem_ctrls0.rdQLenPdf::17                     0                       # What read queue length does an incoming req see
system.mem_ctrls0.rdQLenPdf::18                     0                       # What read queue length does an incoming req see
system.mem_ctrls0.rdQLenPdf::19                     0                       # What read queue length does an incoming req see
system.mem_ctrls0.rdQLenPdf::20                     0                       # What read queue length does an incoming req see
system.mem_ctrls0.rdQLenPdf::21                     0                       # What read queue length does an incoming req see
system.mem_ctrls0.rdQLenPdf::22                     0                       # What read queue length does an incoming req see
system.mem_ctrls0.rdQLenPdf::23                     0                       # What read queue length does an incoming req see
system.mem_ctrls0.rdQLenPdf::24                     0                       # What read queue length does an incoming req see
system.mem_ctrls0.rdQLenPdf::25                     0                       # What read queue length does an incoming req see
system.mem_ctrls0.rdQLenPdf::26                     0                       # What read queue length does an incoming req see
system.mem_ctrls0.rdQLenPdf::27                     0                       # What read queue length does an incoming req see
system.mem_ctrls0.rdQLenPdf::28                     0                       # What read queue length does an incoming req see
system.mem_ctrls0.rdQLenPdf::29                     0                       # What read queue length does an incoming req see
system.mem_ctrls0.rdQLenPdf::30                     0                       # What read queue length does an incoming req see
system.mem_ctrls0.rdQLenPdf::31                     0                       # What read queue length does an incoming req see
system.mem_ctrls0.wrQLenPdf::0                      2                       # What write queue length does an incoming req see
system.mem_ctrls0.wrQLenPdf::1                      2                       # What write queue length does an incoming req see
system.mem_ctrls0.wrQLenPdf::2                      2                       # What write queue length does an incoming req see
system.mem_ctrls0.wrQLenPdf::3                      2                       # What write queue length does an incoming req see
system.mem_ctrls0.wrQLenPdf::4                      2                       # What write queue length does an incoming req see
system.mem_ctrls0.wrQLenPdf::5                      2                       # What write queue length does an incoming req see
system.mem_ctrls0.wrQLenPdf::6                      2                       # What write queue length does an incoming req see
system.mem_ctrls0.wrQLenPdf::7                      2                       # What write queue length does an incoming req see
system.mem_ctrls0.wrQLenPdf::8                      2                       # What write queue length does an incoming req see
system.mem_ctrls0.wrQLenPdf::9                      2                       # What write queue length does an incoming req see
system.mem_ctrls0.wrQLenPdf::10                     2                       # What write queue length does an incoming req see
system.mem_ctrls0.wrQLenPdf::11                     2                       # What write queue length does an incoming req see
system.mem_ctrls0.wrQLenPdf::12                     2                       # What write queue length does an incoming req see
system.mem_ctrls0.wrQLenPdf::13                     2                       # What write queue length does an incoming req see
system.mem_ctrls0.wrQLenPdf::14                     2                       # What write queue length does an incoming req see
system.mem_ctrls0.wrQLenPdf::15                137245                       # What write queue length does an incoming req see
system.mem_ctrls0.wrQLenPdf::16                143614                       # What write queue length does an incoming req see
system.mem_ctrls0.wrQLenPdf::17                245827                       # What write queue length does an incoming req see
system.mem_ctrls0.wrQLenPdf::18                255393                       # What write queue length does an incoming req see
system.mem_ctrls0.wrQLenPdf::19                257147                       # What write queue length does an incoming req see
system.mem_ctrls0.wrQLenPdf::20                257203                       # What write queue length does an incoming req see
system.mem_ctrls0.wrQLenPdf::21                257055                       # What write queue length does an incoming req see
system.mem_ctrls0.wrQLenPdf::22                257064                       # What write queue length does an incoming req see
system.mem_ctrls0.wrQLenPdf::23                257153                       # What write queue length does an incoming req see
system.mem_ctrls0.wrQLenPdf::24                257156                       # What write queue length does an incoming req see
system.mem_ctrls0.wrQLenPdf::25                256925                       # What write queue length does an incoming req see
system.mem_ctrls0.wrQLenPdf::26                256953                       # What write queue length does an incoming req see
system.mem_ctrls0.wrQLenPdf::27                256971                       # What write queue length does an incoming req see
system.mem_ctrls0.wrQLenPdf::28                257539                       # What write queue length does an incoming req see
system.mem_ctrls0.wrQLenPdf::29                258103                       # What write queue length does an incoming req see
system.mem_ctrls0.wrQLenPdf::30                259544                       # What write queue length does an incoming req see
system.mem_ctrls0.wrQLenPdf::31                256166                       # What write queue length does an incoming req see
system.mem_ctrls0.wrQLenPdf::32                255849                       # What write queue length does an incoming req see
system.mem_ctrls0.wrQLenPdf::33                   325                       # What write queue length does an incoming req see
system.mem_ctrls0.wrQLenPdf::34                    54                       # What write queue length does an incoming req see
system.mem_ctrls0.wrQLenPdf::35                    14                       # What write queue length does an incoming req see
system.mem_ctrls0.wrQLenPdf::36                     3                       # What write queue length does an incoming req see
system.mem_ctrls0.wrQLenPdf::37                     0                       # What write queue length does an incoming req see
system.mem_ctrls0.wrQLenPdf::38                     0                       # What write queue length does an incoming req see
system.mem_ctrls0.wrQLenPdf::39                     0                       # What write queue length does an incoming req see
system.mem_ctrls0.wrQLenPdf::40                     0                       # What write queue length does an incoming req see
system.mem_ctrls0.wrQLenPdf::41                     0                       # What write queue length does an incoming req see
system.mem_ctrls0.wrQLenPdf::42                     0                       # What write queue length does an incoming req see
system.mem_ctrls0.wrQLenPdf::43                     0                       # What write queue length does an incoming req see
system.mem_ctrls0.wrQLenPdf::44                     0                       # What write queue length does an incoming req see
system.mem_ctrls0.wrQLenPdf::45                     0                       # What write queue length does an incoming req see
system.mem_ctrls0.wrQLenPdf::46                     0                       # What write queue length does an incoming req see
system.mem_ctrls0.wrQLenPdf::47                     0                       # What write queue length does an incoming req see
system.mem_ctrls0.wrQLenPdf::48                     0                       # What write queue length does an incoming req see
system.mem_ctrls0.wrQLenPdf::49                     0                       # What write queue length does an incoming req see
system.mem_ctrls0.wrQLenPdf::50                     0                       # What write queue length does an incoming req see
system.mem_ctrls0.wrQLenPdf::51                     0                       # What write queue length does an incoming req see
system.mem_ctrls0.wrQLenPdf::52                     0                       # What write queue length does an incoming req see
system.mem_ctrls0.wrQLenPdf::53                     0                       # What write queue length does an incoming req see
system.mem_ctrls0.wrQLenPdf::54                     0                       # What write queue length does an incoming req see
system.mem_ctrls0.wrQLenPdf::55                     0                       # What write queue length does an incoming req see
system.mem_ctrls0.wrQLenPdf::56                     0                       # What write queue length does an incoming req see
system.mem_ctrls0.wrQLenPdf::57                     0                       # What write queue length does an incoming req see
system.mem_ctrls0.wrQLenPdf::58                     0                       # What write queue length does an incoming req see
system.mem_ctrls0.wrQLenPdf::59                     0                       # What write queue length does an incoming req see
system.mem_ctrls0.wrQLenPdf::60                     0                       # What write queue length does an incoming req see
system.mem_ctrls0.wrQLenPdf::61                     0                       # What write queue length does an incoming req see
system.mem_ctrls0.wrQLenPdf::62                     0                       # What write queue length does an incoming req see
system.mem_ctrls0.wrQLenPdf::63                     0                       # What write queue length does an incoming req see
system.mem_ctrls0.bytesPerActivate::samples      8881592                       # Bytes accessed per row activation
system.mem_ctrls0.bytesPerActivate::mean    94.928877                       # Bytes accessed per row activation
system.mem_ctrls0.bytesPerActivate::gmean    83.647277                       # Bytes accessed per row activation
system.mem_ctrls0.bytesPerActivate::stdev    61.332011                       # Bytes accessed per row activation
system.mem_ctrls0.bytesPerActivate::0-127      6292341     70.85%     70.85% # Bytes accessed per row activation
system.mem_ctrls0.bytesPerActivate::128-255      2134993     24.04%     94.89% # Bytes accessed per row activation
system.mem_ctrls0.bytesPerActivate::256-383       398221      4.48%     99.37% # Bytes accessed per row activation
system.mem_ctrls0.bytesPerActivate::384-511        40266      0.45%     99.82% # Bytes accessed per row activation
system.mem_ctrls0.bytesPerActivate::512-639        10059      0.11%     99.94% # Bytes accessed per row activation
system.mem_ctrls0.bytesPerActivate::640-767         2997      0.03%     99.97% # Bytes accessed per row activation
system.mem_ctrls0.bytesPerActivate::768-895         1082      0.01%     99.98% # Bytes accessed per row activation
system.mem_ctrls0.bytesPerActivate::896-1023          531      0.01%     99.99% # Bytes accessed per row activation
system.mem_ctrls0.bytesPerActivate::1024-1151         1102      0.01%    100.00% # Bytes accessed per row activation
system.mem_ctrls0.bytesPerActivate::total      8881592                       # Bytes accessed per row activation
system.mem_ctrls0.rdPerTurnAround::samples       255582                       # Reads before turning the bus around for writes
system.mem_ctrls0.rdPerTurnAround::mean     34.393874                       # Reads before turning the bus around for writes
system.mem_ctrls0.rdPerTurnAround::stdev    56.078024                       # Reads before turning the bus around for writes
system.mem_ctrls0.rdPerTurnAround::0-1023       255579    100.00%    100.00% # Reads before turning the bus around for writes
system.mem_ctrls0.rdPerTurnAround::1024-2047            2      0.00%    100.00% # Reads before turning the bus around for writes
system.mem_ctrls0.rdPerTurnAround::27648-28671            1      0.00%    100.00% # Reads before turning the bus around for writes
system.mem_ctrls0.rdPerTurnAround::total       255582                       # Reads before turning the bus around for writes
system.mem_ctrls0.wrPerTurnAround::samples       255581                       # Writes before turning the bus around for reads
system.mem_ctrls0.wrPerTurnAround::mean     17.150336                       # Writes before turning the bus around for reads
system.mem_ctrls0.wrPerTurnAround::gmean    17.117101                       # Writes before turning the bus around for reads
system.mem_ctrls0.wrPerTurnAround::stdev     1.067993                       # Writes before turning the bus around for reads
system.mem_ctrls0.wrPerTurnAround::16          113470     44.40%     44.40% # Writes before turning the bus around for reads
system.mem_ctrls0.wrPerTurnAround::17            3960      1.55%     45.95% # Writes before turning the bus around for reads
system.mem_ctrls0.wrPerTurnAround::18          126052     49.32%     95.27% # Writes before turning the bus around for reads
system.mem_ctrls0.wrPerTurnAround::19           10813      4.23%     99.50% # Writes before turning the bus around for reads
system.mem_ctrls0.wrPerTurnAround::20            1058      0.41%     99.91% # Writes before turning the bus around for reads
system.mem_ctrls0.wrPerTurnAround::21             155      0.06%     99.97% # Writes before turning the bus around for reads
system.mem_ctrls0.wrPerTurnAround::22              40      0.02%     99.99% # Writes before turning the bus around for reads
system.mem_ctrls0.wrPerTurnAround::23              21      0.01%    100.00% # Writes before turning the bus around for reads
system.mem_ctrls0.wrPerTurnAround::24               5      0.00%    100.00% # Writes before turning the bus around for reads
system.mem_ctrls0.wrPerTurnAround::25               3      0.00%    100.00% # Writes before turning the bus around for reads
system.mem_ctrls0.wrPerTurnAround::26               4      0.00%    100.00% # Writes before turning the bus around for reads
system.mem_ctrls0.wrPerTurnAround::total       255581                       # Writes before turning the bus around for reads
system.mem_ctrls0.totQLat                234486048657                       # Total ticks spent queuing
system.mem_ctrls0.totMemAccLat           399307079907                       # Total ticks spent from burst creation until serviced by the DRAM
system.mem_ctrls0.totBusLat               43952275000                       # Total ticks spent in databus transfers
system.mem_ctrls0.avgQLat                    26675.08                       # Average queueing delay per DRAM burst
system.mem_ctrls0.avgBusLat                   5000.00                       # Average bus latency per DRAM burst
system.mem_ctrls0.avgMemAccLat               45425.08                       # Average memory access latency per DRAM burst
system.mem_ctrls0.avgRdBW                      211.30                       # Average DRAM read bandwidth in MiByte/s
system.mem_ctrls0.avgWrBW                      105.37                       # Average achieved write bandwidth in MiByte/s
system.mem_ctrls0.avgRdBWSys                   211.30                       # Average system read bandwidth in MiByte/s
system.mem_ctrls0.avgWrBWSys                   105.37                       # Average system write bandwidth in MiByte/s
system.mem_ctrls0.peakBW                     12800.00                       # Theoretical peak bandwidth in MiByte/s
system.mem_ctrls0.busUtil                        2.47                       # Data bus utilization in percentage
system.mem_ctrls0.busUtilRead                    1.65                       # Data bus utilization in percentage for reads
system.mem_ctrls0.busUtilWrite                   0.82                       # Data bus utilization in percentage for writes
system.mem_ctrls0.avgRdQLen                      1.03                       # Average read queue length when enqueuing
system.mem_ctrls0.avgWrQLen                     24.81                       # Average write queue length when enqueuing
system.mem_ctrls0.readRowHits                 3170676                       # Number of row buffer hits during reads
system.mem_ctrls0.writeRowHits                1121483                       # Number of row buffer hits during writes
system.mem_ctrls0.readRowHitRate                36.07                       # Row buffer hit rate for reads
system.mem_ctrls0.writeRowHitRate               25.59                       # Row buffer hit rate for writes
system.mem_ctrls0.avgGap                    202102.45                       # Average gap between requests
system.mem_ctrls0.pageHitRate                   32.58                       # Row buffer hit rate, read and write combined
system.mem_ctrls0_0.actEnergy             31694895540                       # Energy for activate commands per rank (pJ)
system.mem_ctrls0_0.preEnergy             16846213725                       # Energy for precharge commands per rank (pJ)
system.mem_ctrls0_0.readEnergy            31382234940                       # Energy for read commands per rank (pJ)
system.mem_ctrls0_0.writeEnergy           11444176620                       # Energy for write commands per rank (pJ)
system.mem_ctrls0_0.refreshEnergy        209482834080.000061                       # Energy for refresh commands per rank (pJ)
system.mem_ctrls0_0.actBackEnergy        195066934440                       # Energy for active background per rank (pJ)
system.mem_ctrls0_0.preBackEnergy          5452814400                       # Energy for precharge background per rank (pJ)
system.mem_ctrls0_0.actPowerDownEnergy   902985554880                       # Energy for active power-down per rank (pJ)
system.mem_ctrls0_0.prePowerDownEnergy    75566978880                       # Energy for precharge power-down per rank (pJ)
system.mem_ctrls0_0.selfRefreshEnergy     13080714000                       # Energy for self refresh per rank (pJ)
system.mem_ctrls0_0.totalEnergy          1493021075655                       # Total energy per rank (pJ)
system.mem_ctrls0_0.averagePower           560.767526                       # Core power per rank (mW)
system.mem_ctrls0_0.totalIdleTime        2220454178406                       # Total Idle time Per DRAM Rank
system.mem_ctrls0_0.memoryStateTime::IDLE   3228994938                       # Time in different power states
system.mem_ctrls0_0.memoryStateTime::REF  88644386000                       # Time in different power states
system.mem_ctrls0_0.memoryStateTime::SREF  43421604380                       # Time in different power states
system.mem_ctrls0_0.memoryStateTime::PRE_PDN 196790141945                       # Time in different power states
system.mem_ctrls0_0.memoryStateTime::ACT 350132373598                       # Time in different power states
system.mem_ctrls0_0.memoryStateTime::ACT_PDN 1980242432081                       # Time in different power states
system.mem_ctrls0_1.actEnergy             31719714180                       # Energy for activate commands per rank (pJ)
system.mem_ctrls0_1.preEnergy             16859412735                       # Energy for precharge commands per rank (pJ)
system.mem_ctrls0_1.readEnergy            31381613760                       # Energy for read commands per rank (pJ)
system.mem_ctrls0_1.writeEnergy           11436649380                       # Energy for write commands per rank (pJ)
system.mem_ctrls0_1.refreshEnergy        209195797200.000061                       # Energy for refresh commands per rank (pJ)
system.mem_ctrls0_1.actBackEnergy        194264437140                       # Energy for active background per rank (pJ)
system.mem_ctrls0_1.preBackEnergy          5431902240                       # Energy for precharge background per rank (pJ)
system.mem_ctrls0_1.actPowerDownEnergy   904277282040                       # Energy for active power-down per rank (pJ)
system.mem_ctrls0_1.prePowerDownEnergy    74648913120                       # Energy for precharge power-down per rank (pJ)
system.mem_ctrls0_1.selfRefreshEnergy     13238229450                       # Energy for self refresh per rank (pJ)
system.mem_ctrls0_1.totalEnergy          1492474264215                       # Total energy per rank (pJ)
system.mem_ctrls0_1.averagePower           560.562147                       # Core power per rank (mW)
system.mem_ctrls0_1.totalIdleTime        2222245274000                       # Total Idle time Per DRAM Rank
system.mem_ctrls0_1.memoryStateTime::IDLE   3150457312                       # Time in different power states
system.mem_ctrls0_1.memoryStateTime::REF  88521076000                       # Time in different power states
system.mem_ctrls0_1.memoryStateTime::SREF  44788219225                       # Time in different power states
system.mem_ctrls0_1.memoryStateTime::PRE_PDN 194398552391                       # Time in different power states
system.mem_ctrls0_1.memoryStateTime::ACT 348543125630                       # Time in different power states
system.mem_ctrls0_1.memoryStateTime::ACT_PDN 1983058502384                       # Time in different power states
system.mem_ctrls1.pwrStateResidencyTicks::UNDEFINED 146139448250016                       # Cumulative time (in ticks) in various power states
system.mem_ctrls1.bytes_read::cpu.inst             64                       # Number of bytes read from this memory
system.mem_ctrls1.bytes_read::cpu.data             64                       # Number of bytes read from this memory
system.mem_ctrls1.bytes_read::switch_cpus.inst        20288                       # Number of bytes read from this memory
system.mem_ctrls1.bytes_read::switch_cpus.data    477335104                       # Number of bytes read from this memory
system.mem_ctrls1.bytes_read::switch_cpus_1.inst         6656                       # Number of bytes read from this memory
system.mem_ctrls1.bytes_read::switch_cpus_1.data     85207104                       # Number of bytes read from this memory
system.mem_ctrls1.bytes_read::total         562569280                       # Number of bytes read from this memory
system.mem_ctrls1.bytes_inst_read::cpu.inst           64                       # Number of instructions bytes read from this memory
system.mem_ctrls1.bytes_inst_read::switch_cpus.inst        20288                       # Number of instructions bytes read from this memory
system.mem_ctrls1.bytes_inst_read::switch_cpus_1.inst         6656                       # Number of instructions bytes read from this memory
system.mem_ctrls1.bytes_inst_read::total        27008                       # Number of instructions bytes read from this memory
system.mem_ctrls1.bytes_written::writebacks    280527424                       # Number of bytes written to this memory
system.mem_ctrls1.bytes_written::total      280527424                       # Number of bytes written to this memory
system.mem_ctrls1.num_reads::cpu.inst               1                       # Number of read requests responded to by this memory
system.mem_ctrls1.num_reads::cpu.data               1                       # Number of read requests responded to by this memory
system.mem_ctrls1.num_reads::switch_cpus.inst          317                       # Number of read requests responded to by this memory
system.mem_ctrls1.num_reads::switch_cpus.data      7458361                       # Number of read requests responded to by this memory
system.mem_ctrls1.num_reads::switch_cpus_1.inst          104                       # Number of read requests responded to by this memory
system.mem_ctrls1.num_reads::switch_cpus_1.data      1331361                       # Number of read requests responded to by this memory
system.mem_ctrls1.num_reads::total            8790145                       # Number of read requests responded to by this memory
system.mem_ctrls1.num_writes::writebacks      4383241                       # Number of write requests responded to by this memory
system.mem_ctrls1.num_writes::total           4383241                       # Number of write requests responded to by this memory
system.mem_ctrls1.bw_read::cpu.inst                24                       # Total read bandwidth from this memory (bytes/s)
system.mem_ctrls1.bw_read::cpu.data                24                       # Total read bandwidth from this memory (bytes/s)
system.mem_ctrls1.bw_read::switch_cpus.inst         7620                       # Total read bandwidth from this memory (bytes/s)
system.mem_ctrls1.bw_read::switch_cpus.data    179283488                       # Total read bandwidth from this memory (bytes/s)
system.mem_ctrls1.bw_read::switch_cpus_1.inst         2500                       # Total read bandwidth from this memory (bytes/s)
system.mem_ctrls1.bw_read::switch_cpus_1.data     32003150                       # Total read bandwidth from this memory (bytes/s)
system.mem_ctrls1.bw_read::total            211296806                       # Total read bandwidth from this memory (bytes/s)
system.mem_ctrls1.bw_inst_read::cpu.inst           24                       # Instruction read bandwidth from this memory (bytes/s)
system.mem_ctrls1.bw_inst_read::switch_cpus.inst         7620                       # Instruction read bandwidth from this memory (bytes/s)
system.mem_ctrls1.bw_inst_read::switch_cpus_1.inst         2500                       # Instruction read bandwidth from this memory (bytes/s)
system.mem_ctrls1.bw_inst_read::total           10144                       # Instruction read bandwidth from this memory (bytes/s)
system.mem_ctrls1.bw_write::writebacks      105363998                       # Write bandwidth from this memory (bytes/s)
system.mem_ctrls1.bw_write::total           105363998                       # Write bandwidth from this memory (bytes/s)
system.mem_ctrls1.bw_total::writebacks      105363998                       # Total bandwidth to/from this memory (bytes/s)
system.mem_ctrls1.bw_total::cpu.inst               24                       # Total bandwidth to/from this memory (bytes/s)
system.mem_ctrls1.bw_total::cpu.data               24                       # Total bandwidth to/from this memory (bytes/s)
system.mem_ctrls1.bw_total::switch_cpus.inst         7620                       # Total bandwidth to/from this memory (bytes/s)
system.mem_ctrls1.bw_total::switch_cpus.data    179283488                       # Total bandwidth to/from this memory (bytes/s)
system.mem_ctrls1.bw_total::switch_cpus_1.inst         2500                       # Total bandwidth to/from this memory (bytes/s)
system.mem_ctrls1.bw_total::switch_cpus_1.data     32003150                       # Total bandwidth to/from this memory (bytes/s)
system.mem_ctrls1.bw_total::total           316660804                       # Total bandwidth to/from this memory (bytes/s)
system.mem_ctrls1.readReqs                    8790145                       # Number of read requests accepted
system.mem_ctrls1.writeReqs                   4383241                       # Number of write requests accepted
system.mem_ctrls1.readBursts                  8790145                       # Number of DRAM read bursts, including those serviced by the write queue
system.mem_ctrls1.writeBursts                 4383241                       # Number of DRAM write bursts, including those merged in the write queue
system.mem_ctrls1.bytesReadDRAM             562568000                       # Total number of bytes read from DRAM
system.mem_ctrls1.bytesReadWrQ                   1280                       # Total number of bytes read from write queue
system.mem_ctrls1.bytesWritten              280525888                       # Total number of bytes written to DRAM
system.mem_ctrls1.bytesReadSys              562569280                       # Total read bytes from the system interface side
system.mem_ctrls1.bytesWrittenSys           280527424                       # Total written bytes from the system interface side
system.mem_ctrls1.servicedByWrQ                    20                       # Number of DRAM read bursts serviced by the write queue
system.mem_ctrls1.mergedWrBursts                    0                       # Number of DRAM write bursts merged with an existing one
system.mem_ctrls1.neitherReadNorWriteReqs            0                       # Number of requests that are neither read nor write
system.mem_ctrls1.perBankRdBursts::0           548681                       # Per bank write bursts
system.mem_ctrls1.perBankRdBursts::1           548505                       # Per bank write bursts
system.mem_ctrls1.perBankRdBursts::2           548797                       # Per bank write bursts
system.mem_ctrls1.perBankRdBursts::3           552109                       # Per bank write bursts
system.mem_ctrls1.perBankRdBursts::4           550262                       # Per bank write bursts
system.mem_ctrls1.perBankRdBursts::5           548857                       # Per bank write bursts
system.mem_ctrls1.perBankRdBursts::6           548547                       # Per bank write bursts
system.mem_ctrls1.perBankRdBursts::7           549294                       # Per bank write bursts
system.mem_ctrls1.perBankRdBursts::8           550876                       # Per bank write bursts
system.mem_ctrls1.perBankRdBursts::9           547892                       # Per bank write bursts
system.mem_ctrls1.perBankRdBursts::10          547152                       # Per bank write bursts
system.mem_ctrls1.perBankRdBursts::11          549662                       # Per bank write bursts
system.mem_ctrls1.perBankRdBursts::12          550156                       # Per bank write bursts
system.mem_ctrls1.perBankRdBursts::13          550346                       # Per bank write bursts
system.mem_ctrls1.perBankRdBursts::14          549898                       # Per bank write bursts
system.mem_ctrls1.perBankRdBursts::15          549091                       # Per bank write bursts
system.mem_ctrls1.perBankWrBursts::0           275281                       # Per bank write bursts
system.mem_ctrls1.perBankWrBursts::1           274074                       # Per bank write bursts
system.mem_ctrls1.perBankWrBursts::2           273236                       # Per bank write bursts
system.mem_ctrls1.perBankWrBursts::3           274224                       # Per bank write bursts
system.mem_ctrls1.perBankWrBursts::4           274214                       # Per bank write bursts
system.mem_ctrls1.perBankWrBursts::5           273973                       # Per bank write bursts
system.mem_ctrls1.perBankWrBursts::6           273910                       # Per bank write bursts
system.mem_ctrls1.perBankWrBursts::7           273294                       # Per bank write bursts
system.mem_ctrls1.perBankWrBursts::8           273308                       # Per bank write bursts
system.mem_ctrls1.perBankWrBursts::9           272847                       # Per bank write bursts
system.mem_ctrls1.perBankWrBursts::10          273892                       # Per bank write bursts
system.mem_ctrls1.perBankWrBursts::11          275353                       # Per bank write bursts
system.mem_ctrls1.perBankWrBursts::12          274223                       # Per bank write bursts
system.mem_ctrls1.perBankWrBursts::13          273006                       # Per bank write bursts
system.mem_ctrls1.perBankWrBursts::14          273460                       # Per bank write bursts
system.mem_ctrls1.perBankWrBursts::15          274922                       # Per bank write bursts
system.mem_ctrls1.numRdRetry                        0                       # Number of times read queue was full causing retry
system.mem_ctrls1.numWrRetry                        0                       # Number of times write queue was full causing retry
system.mem_ctrls1.totGap                 2662459729118                       # Total gap between requests
system.mem_ctrls1.readPktSize::0                    0                       # Read request sizes (log2)
system.mem_ctrls1.readPktSize::1                    0                       # Read request sizes (log2)
system.mem_ctrls1.readPktSize::2                    0                       # Read request sizes (log2)
system.mem_ctrls1.readPktSize::3                    0                       # Read request sizes (log2)
system.mem_ctrls1.readPktSize::4                    0                       # Read request sizes (log2)
system.mem_ctrls1.readPktSize::5                    0                       # Read request sizes (log2)
system.mem_ctrls1.readPktSize::6              8790145                       # Read request sizes (log2)
system.mem_ctrls1.writePktSize::0                   0                       # Write request sizes (log2)
system.mem_ctrls1.writePktSize::1                   0                       # Write request sizes (log2)
system.mem_ctrls1.writePktSize::2                   0                       # Write request sizes (log2)
system.mem_ctrls1.writePktSize::3                   0                       # Write request sizes (log2)
system.mem_ctrls1.writePktSize::4                   0                       # Write request sizes (log2)
system.mem_ctrls1.writePktSize::5                   0                       # Write request sizes (log2)
system.mem_ctrls1.writePktSize::6             4383241                       # Write request sizes (log2)
system.mem_ctrls1.rdQLenPdf::0                8319002                       # What read queue length does an incoming req see
system.mem_ctrls1.rdQLenPdf::1                 339167                       # What read queue length does an incoming req see
system.mem_ctrls1.rdQLenPdf::2                 112556                       # What read queue length does an incoming req see
system.mem_ctrls1.rdQLenPdf::3                  19399                       # What read queue length does an incoming req see
system.mem_ctrls1.rdQLenPdf::4                      1                       # What read queue length does an incoming req see
system.mem_ctrls1.rdQLenPdf::5                      0                       # What read queue length does an incoming req see
system.mem_ctrls1.rdQLenPdf::6                      0                       # What read queue length does an incoming req see
system.mem_ctrls1.rdQLenPdf::7                      0                       # What read queue length does an incoming req see
system.mem_ctrls1.rdQLenPdf::8                      0                       # What read queue length does an incoming req see
system.mem_ctrls1.rdQLenPdf::9                      0                       # What read queue length does an incoming req see
system.mem_ctrls1.rdQLenPdf::10                     0                       # What read queue length does an incoming req see
system.mem_ctrls1.rdQLenPdf::11                     0                       # What read queue length does an incoming req see
system.mem_ctrls1.rdQLenPdf::12                     0                       # What read queue length does an incoming req see
system.mem_ctrls1.rdQLenPdf::13                     0                       # What read queue length does an incoming req see
system.mem_ctrls1.rdQLenPdf::14                     0                       # What read queue length does an incoming req see
system.mem_ctrls1.rdQLenPdf::15                     0                       # What read queue length does an incoming req see
system.mem_ctrls1.rdQLenPdf::16                     0                       # What read queue length does an incoming req see
system.mem_ctrls1.rdQLenPdf::17                     0                       # What read queue length does an incoming req see
system.mem_ctrls1.rdQLenPdf::18                     0                       # What read queue length does an incoming req see
system.mem_ctrls1.rdQLenPdf::19                     0                       # What read queue length does an incoming req see
system.mem_ctrls1.rdQLenPdf::20                     0                       # What read queue length does an incoming req see
system.mem_ctrls1.rdQLenPdf::21                     0                       # What read queue length does an incoming req see
system.mem_ctrls1.rdQLenPdf::22                     0                       # What read queue length does an incoming req see
system.mem_ctrls1.rdQLenPdf::23                     0                       # What read queue length does an incoming req see
system.mem_ctrls1.rdQLenPdf::24                     0                       # What read queue length does an incoming req see
system.mem_ctrls1.rdQLenPdf::25                     0                       # What read queue length does an incoming req see
system.mem_ctrls1.rdQLenPdf::26                     0                       # What read queue length does an incoming req see
system.mem_ctrls1.rdQLenPdf::27                     0                       # What read queue length does an incoming req see
system.mem_ctrls1.rdQLenPdf::28                     0                       # What read queue length does an incoming req see
system.mem_ctrls1.rdQLenPdf::29                     0                       # What read queue length does an incoming req see
system.mem_ctrls1.rdQLenPdf::30                     0                       # What read queue length does an incoming req see
system.mem_ctrls1.rdQLenPdf::31                     0                       # What read queue length does an incoming req see
system.mem_ctrls1.wrQLenPdf::0                      2                       # What write queue length does an incoming req see
system.mem_ctrls1.wrQLenPdf::1                      2                       # What write queue length does an incoming req see
system.mem_ctrls1.wrQLenPdf::2                      2                       # What write queue length does an incoming req see
system.mem_ctrls1.wrQLenPdf::3                      2                       # What write queue length does an incoming req see
system.mem_ctrls1.wrQLenPdf::4                      2                       # What write queue length does an incoming req see
system.mem_ctrls1.wrQLenPdf::5                      2                       # What write queue length does an incoming req see
system.mem_ctrls1.wrQLenPdf::6                      2                       # What write queue length does an incoming req see
system.mem_ctrls1.wrQLenPdf::7                      2                       # What write queue length does an incoming req see
system.mem_ctrls1.wrQLenPdf::8                      2                       # What write queue length does an incoming req see
system.mem_ctrls1.wrQLenPdf::9                      2                       # What write queue length does an incoming req see
system.mem_ctrls1.wrQLenPdf::10                     2                       # What write queue length does an incoming req see
system.mem_ctrls1.wrQLenPdf::11                     2                       # What write queue length does an incoming req see
system.mem_ctrls1.wrQLenPdf::12                     2                       # What write queue length does an incoming req see
system.mem_ctrls1.wrQLenPdf::13                     2                       # What write queue length does an incoming req see
system.mem_ctrls1.wrQLenPdf::14                     2                       # What write queue length does an incoming req see
system.mem_ctrls1.wrQLenPdf::15                137302                       # What write queue length does an incoming req see
system.mem_ctrls1.wrQLenPdf::16                143887                       # What write queue length does an incoming req see
system.mem_ctrls1.wrQLenPdf::17                245843                       # What write queue length does an incoming req see
system.mem_ctrls1.wrQLenPdf::18                255487                       # What write queue length does an incoming req see
system.mem_ctrls1.wrQLenPdf::19                257068                       # What write queue length does an incoming req see
system.mem_ctrls1.wrQLenPdf::20                257131                       # What write queue length does an incoming req see
system.mem_ctrls1.wrQLenPdf::21                256956                       # What write queue length does an incoming req see
system.mem_ctrls1.wrQLenPdf::22                257064                       # What write queue length does an incoming req see
system.mem_ctrls1.wrQLenPdf::23                257139                       # What write queue length does an incoming req see
system.mem_ctrls1.wrQLenPdf::24                257074                       # What write queue length does an incoming req see
system.mem_ctrls1.wrQLenPdf::25                256927                       # What write queue length does an incoming req see
system.mem_ctrls1.wrQLenPdf::26                256901                       # What write queue length does an incoming req see
system.mem_ctrls1.wrQLenPdf::27                256933                       # What write queue length does an incoming req see
system.mem_ctrls1.wrQLenPdf::28                257514                       # What write queue length does an incoming req see
system.mem_ctrls1.wrQLenPdf::29                258002                       # What write queue length does an incoming req see
system.mem_ctrls1.wrQLenPdf::30                259572                       # What write queue length does an incoming req see
system.mem_ctrls1.wrQLenPdf::31                256214                       # What write queue length does an incoming req see
system.mem_ctrls1.wrQLenPdf::32                255820                       # What write queue length does an incoming req see
system.mem_ctrls1.wrQLenPdf::33                   296                       # What write queue length does an incoming req see
system.mem_ctrls1.wrQLenPdf::34                    57                       # What write queue length does an incoming req see
system.mem_ctrls1.wrQLenPdf::35                    17                       # What write queue length does an incoming req see
system.mem_ctrls1.wrQLenPdf::36                     6                       # What write queue length does an incoming req see
system.mem_ctrls1.wrQLenPdf::37                     1                       # What write queue length does an incoming req see
system.mem_ctrls1.wrQLenPdf::38                     0                       # What write queue length does an incoming req see
system.mem_ctrls1.wrQLenPdf::39                     0                       # What write queue length does an incoming req see
system.mem_ctrls1.wrQLenPdf::40                     0                       # What write queue length does an incoming req see
system.mem_ctrls1.wrQLenPdf::41                     0                       # What write queue length does an incoming req see
system.mem_ctrls1.wrQLenPdf::42                     0                       # What write queue length does an incoming req see
system.mem_ctrls1.wrQLenPdf::43                     0                       # What write queue length does an incoming req see
system.mem_ctrls1.wrQLenPdf::44                     0                       # What write queue length does an incoming req see
system.mem_ctrls1.wrQLenPdf::45                     0                       # What write queue length does an incoming req see
system.mem_ctrls1.wrQLenPdf::46                     0                       # What write queue length does an incoming req see
system.mem_ctrls1.wrQLenPdf::47                     0                       # What write queue length does an incoming req see
system.mem_ctrls1.wrQLenPdf::48                     0                       # What write queue length does an incoming req see
system.mem_ctrls1.wrQLenPdf::49                     0                       # What write queue length does an incoming req see
system.mem_ctrls1.wrQLenPdf::50                     0                       # What write queue length does an incoming req see
system.mem_ctrls1.wrQLenPdf::51                     0                       # What write queue length does an incoming req see
system.mem_ctrls1.wrQLenPdf::52                     0                       # What write queue length does an incoming req see
system.mem_ctrls1.wrQLenPdf::53                     0                       # What write queue length does an incoming req see
system.mem_ctrls1.wrQLenPdf::54                     0                       # What write queue length does an incoming req see
system.mem_ctrls1.wrQLenPdf::55                     0                       # What write queue length does an incoming req see
system.mem_ctrls1.wrQLenPdf::56                     0                       # What write queue length does an incoming req see
system.mem_ctrls1.wrQLenPdf::57                     0                       # What write queue length does an incoming req see
system.mem_ctrls1.wrQLenPdf::58                     0                       # What write queue length does an incoming req see
system.mem_ctrls1.wrQLenPdf::59                     0                       # What write queue length does an incoming req see
system.mem_ctrls1.wrQLenPdf::60                     0                       # What write queue length does an incoming req see
system.mem_ctrls1.wrQLenPdf::61                     0                       # What write queue length does an incoming req see
system.mem_ctrls1.wrQLenPdf::62                     0                       # What write queue length does an incoming req see
system.mem_ctrls1.wrQLenPdf::63                     0                       # What write queue length does an incoming req see
system.mem_ctrls1.bytesPerActivate::samples      8882214                       # Bytes accessed per row activation
system.mem_ctrls1.bytesPerActivate::mean    94.919188                       # Bytes accessed per row activation
system.mem_ctrls1.bytesPerActivate::gmean    83.640113                       # Bytes accessed per row activation
system.mem_ctrls1.bytesPerActivate::stdev    61.345855                       # Bytes accessed per row activation
system.mem_ctrls1.bytesPerActivate::0-127      6293425     70.85%     70.85% # Bytes accessed per row activation
system.mem_ctrls1.bytesPerActivate::128-255      2135079     24.04%     94.89% # Bytes accessed per row activation
system.mem_ctrls1.bytesPerActivate::256-383       397796      4.48%     99.37% # Bytes accessed per row activation
system.mem_ctrls1.bytesPerActivate::384-511        39765      0.45%     99.82% # Bytes accessed per row activation
system.mem_ctrls1.bytesPerActivate::512-639        10261      0.12%     99.93% # Bytes accessed per row activation
system.mem_ctrls1.bytesPerActivate::640-767         3184      0.04%     99.97% # Bytes accessed per row activation
system.mem_ctrls1.bytesPerActivate::768-895         1097      0.01%     99.98% # Bytes accessed per row activation
system.mem_ctrls1.bytesPerActivate::896-1023          467      0.01%     99.99% # Bytes accessed per row activation
system.mem_ctrls1.bytesPerActivate::1024-1151         1140      0.01%    100.00% # Bytes accessed per row activation
system.mem_ctrls1.bytesPerActivate::total      8882214                       # Bytes accessed per row activation
system.mem_ctrls1.rdPerTurnAround::samples       255554                       # Reads before turning the bus around for writes
system.mem_ctrls1.rdPerTurnAround::mean     34.396319                       # Reads before turning the bus around for writes
system.mem_ctrls1.rdPerTurnAround::stdev    55.984639                       # Reads before turning the bus around for writes
system.mem_ctrls1.rdPerTurnAround::0-1023       255551    100.00%    100.00% # Reads before turning the bus around for writes
system.mem_ctrls1.rdPerTurnAround::1024-2047            2      0.00%    100.00% # Reads before turning the bus around for writes
system.mem_ctrls1.rdPerTurnAround::27648-28671            1      0.00%    100.00% # Reads before turning the bus around for writes
system.mem_ctrls1.rdPerTurnAround::total       255554                       # Reads before turning the bus around for writes
system.mem_ctrls1.wrPerTurnAround::samples       255554                       # Writes before turning the bus around for reads
system.mem_ctrls1.wrPerTurnAround::mean     17.151823                       # Writes before turning the bus around for reads
system.mem_ctrls1.wrPerTurnAround::gmean    17.118596                       # Writes before turning the bus around for reads
system.mem_ctrls1.wrPerTurnAround::stdev     1.067829                       # Writes before turning the bus around for reads
system.mem_ctrls1.wrPerTurnAround::16          113261     44.32%     44.32% # Writes before turning the bus around for reads
system.mem_ctrls1.wrPerTurnAround::17            4035      1.58%     45.90% # Writes before turning the bus around for reads
system.mem_ctrls1.wrPerTurnAround::18          126086     49.34%     95.24% # Writes before turning the bus around for reads
system.mem_ctrls1.wrPerTurnAround::19           10869      4.25%     99.49% # Writes before turning the bus around for reads
system.mem_ctrls1.wrPerTurnAround::20            1100      0.43%     99.92% # Writes before turning the bus around for reads
system.mem_ctrls1.wrPerTurnAround::21             135      0.05%     99.97% # Writes before turning the bus around for reads
system.mem_ctrls1.wrPerTurnAround::22              37      0.01%     99.99% # Writes before turning the bus around for reads
system.mem_ctrls1.wrPerTurnAround::23              18      0.01%     99.99% # Writes before turning the bus around for reads
system.mem_ctrls1.wrPerTurnAround::24               6      0.00%    100.00% # Writes before turning the bus around for reads
system.mem_ctrls1.wrPerTurnAround::25               4      0.00%    100.00% # Writes before turning the bus around for reads
system.mem_ctrls1.wrPerTurnAround::26               1      0.00%    100.00% # Writes before turning the bus around for reads
system.mem_ctrls1.wrPerTurnAround::27               2      0.00%    100.00% # Writes before turning the bus around for reads
system.mem_ctrls1.wrPerTurnAround::total       255554                       # Writes before turning the bus around for reads
system.mem_ctrls1.totQLat                234123064609                       # Total ticks spent queuing
system.mem_ctrls1.totMemAccLat           398937908359                       # Total ticks spent from burst creation until serviced by the DRAM
system.mem_ctrls1.totBusLat               43950625000                       # Total ticks spent in databus transfers
system.mem_ctrls1.avgQLat                    26634.78                       # Average queueing delay per DRAM burst
system.mem_ctrls1.avgBusLat                   5000.00                       # Average bus latency per DRAM burst
system.mem_ctrls1.avgMemAccLat               45384.78                       # Average memory access latency per DRAM burst
system.mem_ctrls1.avgRdBW                      211.30                       # Average DRAM read bandwidth in MiByte/s
system.mem_ctrls1.avgWrBW                      105.36                       # Average achieved write bandwidth in MiByte/s
system.mem_ctrls1.avgRdBWSys                   211.30                       # Average system read bandwidth in MiByte/s
system.mem_ctrls1.avgWrBWSys                   105.36                       # Average system write bandwidth in MiByte/s
system.mem_ctrls1.peakBW                     12800.00                       # Theoretical peak bandwidth in MiByte/s
system.mem_ctrls1.busUtil                        2.47                       # Data bus utilization in percentage
system.mem_ctrls1.busUtilRead                    1.65                       # Data bus utilization in percentage for reads
system.mem_ctrls1.busUtilWrite                   0.82                       # Data bus utilization in percentage for writes
system.mem_ctrls1.avgRdQLen                      1.03                       # Average read queue length when enqueuing
system.mem_ctrls1.avgWrQLen                     24.83                       # Average write queue length when enqueuing
system.mem_ctrls1.readRowHits                 3170902                       # Number of row buffer hits during reads
system.mem_ctrls1.writeRowHits                1120221                       # Number of row buffer hits during writes
system.mem_ctrls1.readRowHitRate                36.07                       # Row buffer hit rate for reads
system.mem_ctrls1.writeRowHitRate               25.56                       # Row buffer hit rate for writes
system.mem_ctrls1.avgGap                    202108.99                       # Average gap between requests
system.mem_ctrls1.pageHitRate                   32.57                       # Row buffer hit rate, read and write combined
system.mem_ctrls1_0.actEnergy             31689533400                       # Energy for activate commands per rank (pJ)
system.mem_ctrls1_0.preEnergy             16843367475                       # Energy for precharge commands per rank (pJ)
system.mem_ctrls1_0.readEnergy            31380671280                       # Energy for read commands per rank (pJ)
system.mem_ctrls1_0.writeEnergy           11443315320                       # Energy for write commands per rank (pJ)
system.mem_ctrls1_0.refreshEnergy        209496356160.000061                       # Energy for refresh commands per rank (pJ)
system.mem_ctrls1_0.actBackEnergy        194800886370                       # Energy for active background per rank (pJ)
system.mem_ctrls1_0.preBackEnergy          5472437760                       # Energy for precharge background per rank (pJ)
system.mem_ctrls1_0.actPowerDownEnergy   902408919510                       # Energy for active power-down per rank (pJ)
system.mem_ctrls1_0.prePowerDownEnergy    76156725600                       # Energy for precharge power-down per rank (pJ)
system.mem_ctrls1_0.selfRefreshEnergy     13176130635                       # Energy for self refresh per rank (pJ)
system.mem_ctrls1_0.totalEnergy          1492885832550                       # Total energy per rank (pJ)
system.mem_ctrls1_0.averagePower           560.716730                       # Core power per rank (mW)
system.mem_ctrls1_0.totalIdleTime        2220977409415                       # Total Idle time Per DRAM Rank
system.mem_ctrls1_0.memoryStateTime::IDLE   3271634217                       # Time in different power states
system.mem_ctrls1_0.memoryStateTime::REF  88650292000                       # Time in different power states
system.mem_ctrls1_0.memoryStateTime::SREF  43683274561                       # Time in different power states
system.mem_ctrls1_0.memoryStateTime::PRE_PDN 198321158417                       # Time in different power states
system.mem_ctrls1_0.memoryStateTime::ACT 349560553800                       # Time in different power states
system.mem_ctrls1_0.memoryStateTime::ACT_PDN 1978973019947                       # Time in different power states
system.mem_ctrls1_1.actEnergy             31729510260                       # Energy for activate commands per rank (pJ)
system.mem_ctrls1_1.preEnergy             16864634655                       # Energy for precharge commands per rank (pJ)
system.mem_ctrls1_1.readEnergy            31380821220                       # Energy for read commands per rank (pJ)
system.mem_ctrls1_1.writeEnergy           11437077420                       # Energy for write commands per rank (pJ)
system.mem_ctrls1_1.refreshEnergy        209156460240.000061                       # Energy for refresh commands per rank (pJ)
system.mem_ctrls1_1.actBackEnergy        194246684490                       # Energy for active background per rank (pJ)
system.mem_ctrls1_1.preBackEnergy          5431580160                       # Energy for precharge background per rank (pJ)
system.mem_ctrls1_1.actPowerDownEnergy   904662656760                       # Energy for active power-down per rank (pJ)
system.mem_ctrls1_1.prePowerDownEnergy    74286033120                       # Energy for precharge power-down per rank (pJ)
system.mem_ctrls1_1.selfRefreshEnergy     13243552050                       # Energy for self refresh per rank (pJ)
system.mem_ctrls1_1.totalEnergy          1492458691725                       # Total energy per rank (pJ)
system.mem_ctrls1_1.averagePower           560.556295                       # Core power per rank (mW)
system.mem_ctrls1_1.totalIdleTime        2222302087871                       # Total Idle time Per DRAM Rank
system.mem_ctrls1_1.memoryStateTime::IDLE   3154638362                       # Time in different power states
system.mem_ctrls1_1.memoryStateTime::REF  88504184000                       # Time in different power states
system.mem_ctrls1_1.memoryStateTime::SREF  44929303004                       # Time in different power states
system.mem_ctrls1_1.memoryStateTime::PRE_PDN 193449913561                       # Time in different power states
system.mem_ctrls1_1.memoryStateTime::ACT 348498860562                       # Time in different power states
system.mem_ctrls1_1.memoryStateTime::ACT_PDN 1983923033453                       # Time in different power states
system.pwrStateResidencyTicks::UNDEFINED 146139448250016                       # Cumulative time (in ticks) in various power states
system.cpu.branchPred.lookups                       0                       # Number of BP lookups
system.cpu.branchPred.condPredicted                 0                       # Number of conditional branches predicted
system.cpu.branchPred.condIncorrect                 0                       # Number of conditional branches incorrect
system.cpu.branchPred.BTBLookups                    0                       # Number of BTB lookups
system.cpu.branchPred.BTBHits                       0                       # Number of BTB hits
system.cpu.branchPred.BTBCorrect                    0                       # Number of correct BTB predictions (this stat may not work properly.
system.cpu.branchPred.BTBHitPct                   nan                       # BTB Hit Percentage
system.cpu.branchPred.usedRAS                       0                       # Number of times the RAS was used to get a target.
system.cpu.branchPred.RASInCorrect                  0                       # Number of incorrect RAS predictions.
system.cpu.branchPred.indirectLookups               0                       # Number of indirect predictor lookups.
system.cpu.branchPred.indirectHits                  0                       # Number of indirect target hits.
system.cpu.branchPred.indirectMisses                0                       # Number of indirect misses.
system.cpu.branchPredindirectMispredicted            0                       # Number of mispredicted indirect branches.
system.cpu_voltage_domain.voltage                   1                       # Voltage in Volts
system.cpu_clk_domain.clock                       333                       # Clock period in ticks
system.cpu.dtb.fetch_hits                           0                       # ITB hits
system.cpu.dtb.fetch_misses                         0                       # ITB misses
system.cpu.dtb.fetch_acv                            0                       # ITB acv
system.cpu.dtb.fetch_accesses                       0                       # ITB accesses
system.cpu.dtb.read_hits                           13                       # DTB read hits
system.cpu.dtb.read_misses                          0                       # DTB read misses
system.cpu.dtb.read_acv                             0                       # DTB read access violations
system.cpu.dtb.read_accesses                       13                       # DTB read accesses
system.cpu.dtb.write_hits                           0                       # DTB write hits
system.cpu.dtb.write_misses                         0                       # DTB write misses
system.cpu.dtb.write_acv                            0                       # DTB write access violations
system.cpu.dtb.write_accesses                       0                       # DTB write accesses
system.cpu.dtb.data_hits                           13                       # DTB hits
system.cpu.dtb.data_misses                          0                       # DTB misses
system.cpu.dtb.data_acv                             0                       # DTB access violations
system.cpu.dtb.data_accesses                       13                       # DTB accesses
system.cpu.itb.fetch_hits                           4                       # ITB hits
system.cpu.itb.fetch_misses                         0                       # ITB misses
system.cpu.itb.fetch_acv                            0                       # ITB acv
system.cpu.itb.fetch_accesses                       4                       # ITB accesses
system.cpu.itb.read_hits                            0                       # DTB read hits
system.cpu.itb.read_misses                          0                       # DTB read misses
system.cpu.itb.read_acv                             0                       # DTB read access violations
system.cpu.itb.read_accesses                        0                       # DTB read accesses
system.cpu.itb.write_hits                           0                       # DTB write hits
system.cpu.itb.write_misses                         0                       # DTB write misses
system.cpu.itb.write_acv                            0                       # DTB write access violations
system.cpu.itb.write_accesses                       0                       # DTB write accesses
system.cpu.itb.data_hits                            0                       # DTB hits
system.cpu.itb.data_misses                          0                       # DTB misses
system.cpu.itb.data_acv                             0                       # DTB access violations
system.cpu.itb.data_accesses                        0                       # DTB accesses
system.cpu.workload.num_syscalls                    0                       # Number of system calls
system.cpu.pwrStateResidencyTicks::ON    2662459932942                       # Cumulative time (in ticks) in various power states
system.cpu.numCycles                              582                       # number of cpu cycles simulated
system.cpu.numWorkItemsStarted                      0                       # number of work items this cpu started
system.cpu.numWorkItemsCompleted                    0                       # number of work items this cpu completed
system.cpu.fetch.icacheStallCycles                 49                       # Number of cycles fetch is stalled on an Icache miss
system.cpu.fetch.Insts                             23                       # Number of instructions fetch has processed
system.cpu.fetch.Cycles                             3                       # Number of cycles fetch has run and was not squashing or blocked
system.cpu.fetch.SquashCycles                       3                       # Number of cycles fetch has spent squashing
system.cpu.fetch.PendingDrainCycles                 7                       # Number of cycles fetch has spent waiting on pipes to drain
system.cpu.fetch.CacheLines                         4                       # Number of cache lines fetched
system.cpu.fetch.IcacheSquashes                     2                       # Number of outstanding Icache misses that were squashed
system.cpu.fetch.rateDist::samples                 60                       # Number of instructions fetched each cycle (Total)
system.cpu.fetch.rateDist::mean              0.383333                       # Number of instructions fetched each cycle (Total)
[...]
system.switch_cpus_1.iq.fu_busy_rate         0.055156                       # FU busy rate (busy events/executed inst)
system.switch_cpus_1.iq.int_inst_queue_reads    601826391                       # Number of integer instruction queue reads
system.switch_cpus_1.iq.int_inst_queue_writes     79841420                       # Number of integer instruction queue writes
system.switch_cpus_1.iq.int_inst_queue_wakeup_accesses     72911193                       # Number of integer instruction queue wakeup accesses
system.switch_cpus_1.iq.fp_inst_queue_reads    313219152                       # Number of floating instruction queue reads
system.switch_cpus_1.iq.fp_inst_queue_writes    167480884                       # Number of floating instruction queue writes
system.switch_cpus_1.iq.fp_inst_queue_wakeup_accesses    142521124                       # Number of floating instruction queue wakeup accesses
system.switch_cpus_1.iq.int_alu_accesses     81279462                       # Number of integer alu accesses
system.switch_cpus_1.iq.fp_alu_accesses     160127786                       # Number of floating point alu accesses
system.switch_cpus_1.iew.lsq.thread0.forwLoads       562313                       # Number of loads that had data forwarded from stores
system.switch_cpus_1.iew.lsq.thread0.invAddrLoads            0                       # Number of loads ignored due to an invalid address
system.switch_cpus_1.iew.lsq.thread0.squashedLoads      9698801                       # Number of loads squashed
system.switch_cpus_1.iew.lsq.thread0.ignoredResponses           34                       # Number of memory responses ignored because the instruction is squashed
system.switch_cpus_1.iew.lsq.thread0.memOrderViolation          515                       # Number of memory ordering violations
system.switch_cpus_1.iew.lsq.thread0.squashedStores      1086709                       # Number of stores squashed
system.switch_cpus_1.iew.lsq.thread0.invAddrSwpfs            0                       # Number of software prefetches ignored due to an invalid address
system.switch_cpus_1.iew.lsq.thread0.blockedLoads            0                       # Number of blocked loads due to partial load-store forwarding
system.switch_cpus_1.iew.lsq.thread0.rescheduledLoads            0                       # Number of loads that were rescheduled
system.switch_cpus_1.iew.lsq.thread0.cacheBlocked     11964529                       # Number of times an access to memory failed due to the cache being blocked
system.switch_cpus_1.iew.iewIdleCycles              0                       # Number of cycles IEW is idle
system.switch_cpus_1.iew.iewSquashCycles       306909                       # Number of cycles IEW is squashing
system.switch_cpus_1.iew.iewBlockCycles      10212258                       # Number of cycles IEW is blocking
system.switch_cpus_1.iew.iewUnblockCycles    130402353                       # Number of cycles IEW is unblocking
system.switch_cpus_1.iew.iewDispatchedInsts    223846969                       # Number of instructions dispatched to IQ
system.switch_cpus_1.iew.iewDispSquashedInsts         1657                       # Number of squashed instructions skipped by dispatch
system.switch_cpus_1.iew.iewDispLoadInsts     93114409                       # Number of dispatched load instructions
system.switch_cpus_1.iew.iewDispStoreInsts     11679156                       # Number of dispatched store instructions
system.switch_cpus_1.iew.iewDispNonSpecInsts            0                       # Number of dispatched non-speculative instructions
system.switch_cpus_1.iew.iewIQFullEvents        36122                       # Number of times the IQ has become full, causing a stall
system.switch_cpus_1.iew.iewLSQFullEvents    130344409                       # Number of times the LSQ has become full, causing a stall
system.switch_cpus_1.iew.memOrderViolationEvents          515                       # Number of memory order violations
system.switch_cpus_1.iew.predictedTakenIncorrect         3860                       # Number of branches that were predicted taken incorrectly
system.switch_cpus_1.iew.predictedNotTakenIncorrect          454                       # Number of branches that were predicted not taken incorrectly
system.switch_cpus_1.iew.branchMispredicts         4314                       # Number of branch mispredicts detected at execute
system.switch_cpus_1.iew.iewExecutedInsts    228707727                       # Number of executed instructions
system.switch_cpus_1.iew.iewExecLoadInsts    104307754                       # Number of load instructions executed
system.switch_cpus_1.iew.iewExecSquashedInsts        80548                       # Number of squashed instructions skipped in execute
system.switch_cpus_1.iew.exec_swp                   0                       # number of swp insts executed
system.switch_cpus_1.iew.exec_nop              186041                       # number of nop insts executed
system.switch_cpus_1.iew.exec_refs          115026929                       # number of memory reference insts executed
system.switch_cpus_1.iew.exec_branches        1994195                       # Number of branches executed
system.switch_cpus_1.iew.exec_stores         10719175                       # Number of stores executed
system.switch_cpus_1.iew.exec_rate           0.514476                       # Inst execution rate
system.switch_cpus_1.iew.wb_sent            216505662                       # cumulative count of insts sent to commit
system.switch_cpus_1.iew.wb_count           215432317                       # cumulative count of insts written-back
system.switch_cpus_1.iew.wb_producers       143038747                       # num instructions producing a value
system.switch_cpus_1.iew.wb_consumers       149917398                       # num instructions consuming a value
system.switch_cpus_1.iew.wb_rate             0.484613                       # insts written-back per cycle
system.switch_cpus_1.iew.wb_fanout           0.954117                       # average fanout of values written-back
system.switch_cpus_1.commit.commitSquashedInsts     22566430                       # The number of squashed insts skipped by commit
system.switch_cpus_1.commit.branchMispredicts         4265                       # The number of times a branch was mispredicted
system.switch_cpus_1.commit.committed_per_cycle::samples    441545238                       # Number of insts commited each cycle
system.switch_cpus_1.commit.committed_per_cycle::mean     0.453375                       # Number of insts commited each cycle
system.switch_cpus_1.commit.committed_per_cycle::stdev     1.679097                       # Number of insts commited each cycle
system.switch_cpus_1.commit.committed_per_cycle::underflows            0      0.00%      0.00% # Number of insts commited each cycle
system.switch_cpus_1.commit.committed_per_cycle::0    398409601     90.23%     90.23% # Number of insts commited each cycle
system.switch_cpus_1.commit.committed_per_cycle::1     12534225      2.84%     93.07% # Number of insts commited each cycle
system.switch_cpus_1.commit.committed_per_cycle::2      4291877      0.97%     94.04% # Number of insts commited each cycle
system.switch_cpus_1.commit.committed_per_cycle::3      2662601      0.60%     94.64% # Number of insts commited each cycle
system.switch_cpus_1.commit.committed_per_cycle::4      2253869      0.51%     95.15% # Number of insts commited each cycle
system.switch_cpus_1.commit.committed_per_cycle::5      1603994      0.36%     95.52% # Number of insts commited each cycle
system.switch_cpus_1.commit.committed_per_cycle::6      1666768      0.38%     95.90% # Number of insts commited each cycle
system.switch_cpus_1.commit.committed_per_cycle::7       934745      0.21%     96.11% # Number of insts commited each cycle
system.switch_cpus_1.commit.committed_per_cycle::8     17187558      3.89%    100.00% # Number of insts commited each cycle
system.switch_cpus_1.commit.committed_per_cycle::overflows            0      0.00%    100.00% # Number of insts commited each cycle
system.switch_cpus_1.commit.committed_per_cycle::min_value            0                       # Number of insts commited each cycle
system.switch_cpus_1.commit.committed_per_cycle::max_value            8                       # Number of insts commited each cycle
system.switch_cpus_1.commit.committed_per_cycle::total    441545238                       # Number of insts commited each cycle
system.switch_cpus_1.commit.committedInsts    200185515                       # Number of instructions committed
system.switch_cpus_1.commit.committedOps    200185515                       # Number of ops (including micro ops) committed
system.switch_cpus_1.commit.swp_count               0                       # Number of s/w prefetches committed
system.switch_cpus_1.commit.refs             94008030                       # Number of memory references committed
system.switch_cpus_1.commit.loads            83415586                       # Number of loads committed
system.switch_cpus_1.commit.membars                 0                       # Number of memory barriers committed
system.switch_cpus_1.commit.branches          1780705                       # Number of branches committed
system.switch_cpus_1.commit.fp_insts        133556284                       # Number of committed floating point instructions.
system.switch_cpus_1.commit.int_insts       133992906                       # Number of committed integer instructions.
system.switch_cpus_1.commit.function_calls            0                       # Number of function calls committed.
system.switch_cpus_1.commit.op_class_0::No_OpClass       185513      0.09%      0.09% # Class of committed instruction
system.switch_cpus_1.commit.op_class_0::IntAlu     39964775     19.96%     20.06% # Class of committed instruction
system.switch_cpus_1.commit.op_class_0::IntMult        96303      0.05%     20.10% # Class of committed instruction
system.switch_cpus_1.commit.op_class_0::IntDiv            0      0.00%     20.10% # Class of committed instruction
system.switch_cpus_1.commit.op_class_0::FloatAdd     26372358     13.17%     33.28% # Class of committed instruction
system.switch_cpus_1.commit.op_class_0::FloatCmp            0      0.00%     33.28% # Class of committed instruction
system.switch_cpus_1.commit.op_class_0::FloatCvt            0      0.00%     33.28% # Class of committed instruction
system.switch_cpus_1.commit.op_class_0::FloatMult     39558536     19.76%     53.04% # Class of committed instruction
system.switch_cpus_1.commit.op_class_0::FloatMultAcc            0      0.00%     53.04% # Class of committed instruction
system.switch_cpus_1.commit.op_class_0::FloatDiv            0      0.00%     53.04% # Class of committed instruction
system.switch_cpus_1.commit.op_class_0::FloatMisc            0      0.00%     53.04% # Class of committed instruction
system.switch_cpus_1.commit.op_class_0::FloatSqrt            0      0.00%     53.04% # Class of committed instruction
system.switch_cpus_1.commit.op_class_0::SimdAdd            0      0.00%     53.04% # Class of committed instruction
system.switch_cpus_1.commit.op_class_0::SimdAddAcc            0      0.00%     53.04% # Class of committed instruction
system.switch_cpus_1.commit.op_class_0::SimdAlu            0      0.00%     53.04% # Class of committed instruction
system.switch_cpus_1.commit.op_class_0::SimdCmp            0      0.00%     53.04% # Class of committed instruction
system.switch_cpus_1.commit.op_class_0::SimdCvt            0      0.00%     53.04% # Class of committed instruction
system.switch_cpus_1.commit.op_class_0::SimdMisc            0      0.00%     53.04% # Class of committed instruction
system.switch_cpus_1.commit.op_class_0::SimdMult            0      0.00%     53.04% # Class of committed instruction
system.switch_cpus_1.commit.op_class_0::SimdMultAcc            0      0.00%     53.04% # Class of committed instruction
system.switch_cpus_1.commit.op_class_0::SimdShift            0      0.00%     53.04% # Class of committed instruction
system.switch_cpus_1.commit.op_class_0::SimdShiftAcc            0      0.00%     53.04% # Class of committed instruction
system.switch_cpus_1.commit.op_class_0::SimdSqrt            0      0.00%     53.04% # Class of committed instruction
system.switch_cpus_1.commit.op_class_0::SimdFloatAdd            0      0.00%     53.04% # Class of committed instruction
system.switch_cpus_1.commit.op_class_0::SimdFloatAlu            0      0.00%     53.04% # Class of committed instruction
system.switch_cpus_1.commit.op_class_0::SimdFloatCmp            0      0.00%     53.04% # Class of committed instruction
system.switch_cpus_1.commit.op_class_0::SimdFloatCvt            0      0.00%     53.04% # Class of committed instruction
system.switch_cpus_1.commit.op_class_0::SimdFloatDiv            0      0.00%     53.04% # Class of committed instruction
system.switch_cpus_1.commit.op_class_0::SimdFloatMisc            0      0.00%     53.04% # Class of committed instruction
system.switch_cpus_1.commit.op_class_0::SimdFloatMult            0      0.00%     53.04% # Class of committed instruction
system.switch_cpus_1.commit.op_class_0::SimdFloatMultAcc            0      0.00%     53.04% # Class of committed instruction
system.switch_cpus_1.commit.op_class_0::SimdFloatSqrt            0      0.00%     53.04% # Class of committed instruction
system.switch_cpus_1.commit.op_class_0::MemRead     24580982     12.28%     65.32% # Class of committed instruction
system.switch_cpus_1.commit.op_class_0::MemWrite      1801658      0.90%     66.22% # Class of committed instruction
system.switch_cpus_1.commit.op_class_0::FloatMemRead     58834604     29.39%     95.61% # Class of committed instruction
system.switch_cpus_1.commit.op_class_0::FloatMemWrite      8790786      4.39%    100.00% # Class of committed instruction
system.switch_cpus_1.commit.op_class_0::IprAccess            0      0.00%    100.00% # Class of committed instruction
system.switch_cpus_1.commit.op_class_0::InstPrefetch            0      0.00%    100.00% # Class of committed instruction
system.switch_cpus_1.commit.op_class_0::total    200185515                       # Class of committed instruction
system.switch_cpus_1.commit.bw_lim_events     17187558                       # number cycles where commit BW limit reached
system.switch_cpus_1.rob.rob_reads          643180752                       # The number of ROB reads
system.switch_cpus_1.rob.rob_writes         448461855                       # The number of ROB writes
system.switch_cpus_1.timesIdled                   374                       # Number of times that the entire CPU went into an idle state and unscheduled itself
system.switch_cpus_1.idleCycles                 42247                       # Total number of cycles that the CPU has spent unscheduled due to idling
system.switch_cpus_1.committedInsts         200000002                       # Number of Instructions Simulated
system.switch_cpus_1.committedOps           200000002                       # Number of Ops (including micro ops) Simulated
system.switch_cpus_1.cpi                     2.222727                       # CPI: Cycles Per Instruction
system.switch_cpus_1.cpi_total               2.222727                       # CPI: Total CPI of All Threads
system.switch_cpus_1.ipc                     0.449898                       # IPC: Instructions Per Cycle
system.switch_cpus_1.ipc_total               0.449898                       # IPC: Total IPC of All Threads
system.switch_cpus_1.int_regfile_reads      181596666                       # number of integer regfile reads
system.switch_cpus_1.int_regfile_writes      69113171                       # number of integer regfile writes
system.switch_cpus_1.fp_regfile_reads       147032422                       # number of floating regfile reads
system.switch_cpus_1.fp_regfile_writes      133618117                       # number of floating regfile writes
system.tol3bus.snoop_filter.tot_requests     39183390                       # Total number of requests made to the snoop filter.
system.tol3bus.snoop_filter.hit_single_requests     19589368                       # Number of requests hitting in the snoop filter with a single holder of the requested data.
system.tol3bus.snoop_filter.hit_multi_requests            0                       # Number of requests hitting in the snoop filter with multiple (>1) holders of the requested data.
system.tol3bus.snoop_filter.tot_snoops        1189620                       # Total number of snoops made to the snoop filter.
system.tol3bus.snoop_filter.hit_single_snoops      1189620                       # Number of snoops hitting in the snoop filter with a single holder of the requested data.
system.tol3bus.snoop_filter.hit_multi_snoops            0                       # Number of snoops hitting in the snoop filter with multiple (>1) holders of the requested data.
system.tol3bus.pwrStateResidencyTicks::UNDEFINED 146139448250016                       # Cumulative time (in ticks) in various power states
system.tol3bus.trans_dist::ReadResp          19456170                       # Transaction distribution
system.tol3bus.trans_dist::WritebackDirty     17801805                       # Transaction distribution
system.tol3bus.trans_dist::CleanEvict        19990912                       # Transaction distribution
system.tol3bus.trans_dist::UpgradeReq               6                       # Transaction distribution
system.tol3bus.trans_dist::UpgradeResp              6                       # Transaction distribution
system.tol3bus.trans_dist::ReadExReq           137852                       # Transaction distribution
system.tol3bus.trans_dist::ReadExResp          137852                       # Transaction distribution
system.tol3bus.trans_dist::ReadSharedReq     19456170                       # Transaction distribution
system.tol3bus.pkt_count_system.cpu.l2.mem_side::system.l3.cpu_side     58777418                       # Packet count per connected master and slave (bytes)
system.tol3bus.pkt_size_system.cpu.l2.mem_side::system.l3.cpu_side   1832272192                       # Cumulative packet size per connected master and slave (bytes)
system.tol3bus.snoops                        18203355                       # Total snoops (count)
system.tol3bus.snoopTraffic                 561060736                       # Total snoop traffic (bytes)
system.tol3bus.snoop_fanout::samples         37797383                       # Request fanout histogram
system.tol3bus.snoop_fanout::mean            0.031474                       # Request fanout histogram
system.tol3bus.snoop_fanout::stdev           0.174594                       # Request fanout histogram
system.tol3bus.snoop_fanout::underflows             0      0.00%      0.00% # Request fanout histogram
system.tol3bus.snoop_fanout::0               36607763     96.85%     96.85% # Request fanout histogram
system.tol3bus.snoop_fanout::1                1189620      3.15%    100.00% # Request fanout histogram
system.tol3bus.snoop_fanout::overflows              0      0.00%    100.00% # Request fanout histogram
system.tol3bus.snoop_fanout::min_value              0                       # Request fanout histogram
system.tol3bus.snoop_fanout::max_value              1                       # Request fanout histogram
system.tol3bus.snoop_fanout::total           37797383                       # Request fanout histogram
system.tol3bus.reqLayer0.occupancy        16056800793                       # Layer occupancy (ticks)
system.tol3bus.reqLayer0.utilization              0.6                       # Layer utilization (%)
system.tol3bus.respLayer0.occupancy       13049620650                       # Layer occupancy (ticks)
system.tol3bus.respLayer0.utilization             0.5                       # Layer utilization (%)

---------- End Simulation Statistics   ----------
