
---------- Begin Simulation Statistics ----------
sim_seconds                                  1.061850                       # Number of seconds simulated
sim_ticks                                1061849602818                       # Number of ticks simulated
final_tick                               31073263763868                       # Number of ticks from beginning of simulation (restored from checkpoints and never reset)
sim_freq                                 1000000000000                       # Frequency of simulated ticks
host_inst_rate                                 491921                       # Simulator instruction rate (inst/s)
host_op_rate                                   491921                       # Simulator op (including micro ops) rate (op/s)
host_tick_rate                              435287988                       # Simulator tick rate (ticks/s)
host_mem_usage                                2423924                       # Number of bytes of host memory used
host_seconds                                  2439.42                       # Real time elapsed on the host
sim_insts                                  1200000007                       # Number of instructions simulated
sim_ops                                    1200000007                       # Number of ops (including micro ops) simulated
system.voltage_domain.voltage                       1                       # Voltage in Volts
system.clk_domain.clock                          1000                       # Clock period in ticks
system.mem_ctrls0.pwrStateResidencyTicks::UNDEFINED 31073263763868                       # Cumulative time (in ticks) in various power states
system.mem_ctrls0.bytes_read::cpu.inst             64                       # Number of bytes read from this memory
system.mem_ctrls0.bytes_read::switch_cpus.inst       138624                       # Number of bytes read from this memory
system.mem_ctrls0.bytes_read::switch_cpus.data      3616000                       # Number of bytes read from this memory
system.mem_ctrls0.bytes_read::switch_cpus_1.inst       108032                       # Number of bytes read from this memory
system.mem_ctrls0.bytes_read::switch_cpus_1.data      1551488                       # Number of bytes read from this memory
system.mem_ctrls0.bytes_read::total           5414208                       # Number of bytes read from this memory
system.mem_ctrls0.bytes_inst_read::cpu.inst           64                       # Number of instructions bytes read from this memory
system.mem_ctrls0.bytes_inst_read::switch_cpus.inst       138624                       # Number of instructions bytes read from this memory
system.mem_ctrls0.bytes_inst_read::switch_cpus_1.inst       108032                       # Number of instructions bytes read from this memory
system.mem_ctrls0.bytes_inst_read::total       246720                       # Number of instructions bytes read from this memory
system.mem_ctrls0.bytes_written::writebacks       714048                       # Number of bytes written to this memory
system.mem_ctrls0.bytes_written::total         714048                       # Number of bytes written to this memory
system.mem_ctrls0.num_reads::cpu.inst               1                       # Number of read requests responded to by this memory
system.mem_ctrls0.num_reads::switch_cpus.inst         2166                       # Number of read requests responded to by this memory
system.mem_ctrls0.num_reads::switch_cpus.data        56500                       # Number of read requests responded to by this memory
system.mem_ctrls0.num_reads::switch_cpus_1.inst         1688                       # Number of read requests responded to by this memory
system.mem_ctrls0.num_reads::switch_cpus_1.data        24242                       # Number of read requests responded to by this memory
system.mem_ctrls0.num_reads::total              84597                       # Number of read requests responded to by this memory
system.mem_ctrls0.num_writes::writebacks        11157                       # Number of write requests responded to by this memory
system.mem_ctrls0.num_writes::total             11157                       # Number of write requests responded to by this memory
system.mem_ctrls0.bw_read::cpu.inst                60                       # Total read bandwidth from this memory (bytes/s)
system.mem_ctrls0.bw_read::switch_cpus.inst       130550                       # Total read bandwidth from this memory (bytes/s)
system.mem_ctrls0.bw_read::switch_cpus.data      3405379                       # Total read bandwidth from this memory (bytes/s)
system.mem_ctrls0.bw_read::switch_cpus_1.inst       101739                       # Total read bandwidth from this memory (bytes/s)
system.mem_ctrls0.bw_read::switch_cpus_1.data      1461118                       # Total read bandwidth from this memory (bytes/s)
system.mem_ctrls0.bw_read::total              5098846                       # Total read bandwidth from this memory (bytes/s)
system.mem_ctrls0.bw_inst_read::cpu.inst           60                       # Instruction read bandwidth from this memory (bytes/s)
system.mem_ctrls0.bw_inst_read::switch_cpus.inst       130550                       # Instruction read bandwidth from this memory (bytes/s)
system.mem_ctrls0.bw_inst_read::switch_cpus_1.inst       101739                       # Instruction read bandwidth from this memory (bytes/s)
system.mem_ctrls0.bw_inst_read::total          232349                       # Instruction read bandwidth from this memory (bytes/s)
system.mem_ctrls0.bw_write::writebacks         672457                       # Write bandwidth from this memory (bytes/s)
system.mem_ctrls0.bw_write::total              672457                       # Write bandwidth from this memory (bytes/s)
system.mem_ctrls0.bw_total::writebacks         672457                       # Total bandwidth to/from this memory (bytes/s)
system.mem_ctrls0.bw_total::cpu.inst               60                       # Total bandwidth to/from this memory (bytes/s)
system.mem_ctrls0.bw_total::switch_cpus.inst       130550                       # Total bandwidth to/from this memory (bytes/s)
system.mem_ctrls0.bw_total::switch_cpus.data      3405379                       # Total bandwidth to/from this memory (bytes/s)
system.mem_ctrls0.bw_total::switch_cpus_1.inst       101739                       # Total bandwidth to/from this memory (bytes/s)
system.mem_ctrls0.bw_total::switch_cpus_1.data      1461118                       # Total bandwidth to/from this memory (bytes/s)
system.mem_ctrls0.bw_total::total             5771303                       # Total bandwidth to/from this memory (bytes/s)
system.mem_ctrls0.readReqs                      84597                       # Number of read requests accepted
system.mem_ctrls0.writeReqs                     11157                       # Number of write requests accepted
system.mem_ctrls0.readBursts                    84597                       # Number of DRAM read bursts, including those serviced by the write queue
system.mem_ctrls0.writeBursts                   11157                       # Number of DRAM write bursts, including those merged in the write queue
system.mem_ctrls0.bytesReadDRAM               5410368                       # Total number of bytes read from DRAM
system.mem_ctrls0.bytesReadWrQ                   3840                       # Total number of bytes read from write queue
system.mem_ctrls0.bytesWritten                 712960                       # Total number of bytes written to DRAM
system.mem_ctrls0.bytesReadSys                5414208                       # Total read bytes from the system interface side
system.mem_ctrls0.bytesWrittenSys              714048                       # Total written bytes from the system interface side
system.mem_ctrls0.servicedByWrQ                    60                       # Number of DRAM read bursts serviced by the write queue
system.mem_ctrls0.mergedWrBursts                    0                       # Number of DRAM write bursts merged with an existing one
system.mem_ctrls0.neitherReadNorWriteReqs            0                       # Number of requests that are neither read nor write
system.mem_ctrls0.perBankRdBursts::0             5287                       # Per bank write bursts
system.mem_ctrls0.perBankRdBursts::1             5353                       # Per bank write bursts
system.mem_ctrls0.perBankRdBursts::2             5920                       # Per bank write bursts
system.mem_ctrls0.perBankRdBursts::3             5609                       # Per bank write bursts
system.mem_ctrls0.perBankRdBursts::4             5151                       # Per bank write bursts
system.mem_ctrls0.perBankRdBursts::5             5180                       # Per bank write bursts
system.mem_ctrls0.perBankRdBursts::6             4810                       # Per bank write bursts
system.mem_ctrls0.perBankRdBursts::7             4883                       # Per bank write bursts
system.mem_ctrls0.perBankRdBursts::8             4926                       # Per bank write bursts
system.mem_ctrls0.perBankRdBursts::9             5064                       # Per bank write bursts
system.mem_ctrls0.perBankRdBursts::10            4896                       # Per bank write bursts
system.mem_ctrls0.perBankRdBursts::11            4710                       # Per bank write bursts
system.mem_ctrls0.perBankRdBursts::12            5941                       # Per bank write bursts
system.mem_ctrls0.perBankRdBursts::13            5482                       # Per bank write bursts
system.mem_ctrls0.perBankRdBursts::14            5563                       # Per bank write bursts
system.mem_ctrls0.perBankRdBursts::15            5762                       # Per bank write bursts
system.mem_ctrls0.perBankWrBursts::0              721                       # Per bank write bursts
system.mem_ctrls0.perBankWrBursts::1              743                       # Per bank write bursts
system.mem_ctrls0.perBankWrBursts::2              796                       # Per bank write bursts
system.mem_ctrls0.perBankWrBursts::3              735                       # Per bank write bursts
system.mem_ctrls0.perBankWrBursts::4              701                       # Per bank write bursts
system.mem_ctrls0.perBankWrBursts::5              654                       # Per bank write bursts
system.mem_ctrls0.perBankWrBursts::6              532                       # Per bank write bursts
system.mem_ctrls0.perBankWrBursts::7              651                       # Per bank write bursts
system.mem_ctrls0.perBankWrBursts::8              624                       # Per bank write bursts
system.mem_ctrls0.perBankWrBursts::9              534                       # Per bank write bursts
system.mem_ctrls0.perBankWrBursts::10             543                       # Per bank write bursts
system.mem_ctrls0.perBankWrBursts::11             634                       # Per bank write bursts
system.mem_ctrls0.perBankWrBursts::12             909                       # Per bank write bursts
system.mem_ctrls0.perBankWrBursts::13             810                       # Per bank write bursts
system.mem_ctrls0.perBankWrBursts::14             819                       # Per bank write bursts
system.mem_ctrls0.perBankWrBursts::15             734                       # Per bank write bursts
system.mem_ctrls0.numRdRetry                        0                       # Number of times read queue was full causing retry
system.mem_ctrls0.numWrRetry                        0                       # Number of times write queue was full causing retry
system.mem_ctrls0.totGap                 1061842608153                       # Total gap between requests
system.mem_ctrls0.readPktSize::0                    0                       # Read request sizes (log2)
system.mem_ctrls0.readPktSize::1                    0                       # Read request sizes (log2)
system.mem_ctrls0.readPktSize::2                    0                       # Read request sizes (log2)
system.mem_ctrls0.readPktSize::3                    0                       # Read request sizes (log2)
system.mem_ctrls0.readPktSize::4                    0                       # Read request sizes (log2)
system.mem_ctrls0.readPktSize::5                    0                       # Read request sizes (log2)
system.mem_ctrls0.readPktSize::6                84597                       # Read request sizes (log2)
system.mem_ctrls0.writePktSize::0                   0                       # Write request sizes (log2)
system.mem_ctrls0.writePktSize::1                   0                       # Write request sizes (log2)
system.mem_ctrls0.writePktSize::2                   0                       # Write request sizes (log2)
system.mem_ctrls0.writePktSize::3                   0                       # Write request sizes (log2)
system.mem_ctrls0.writePktSize::4                   0                       # Write request sizes (log2)
system.mem_ctrls0.writePktSize::5                   0                       # Write request sizes (log2)
system.mem_ctrls0.writePktSize::6               11157                       # Write request sizes (log2)
system.mem_ctrls0.rdQLenPdf::0                  82042                       # What read queue length does an incoming req see
system.mem_ctrls0.rdQLenPdf::1                   2371                       # What read queue length does an incoming req see
system.mem_ctrls0.rdQLenPdf::2                    113                       # What read queue length does an incoming req see
system.mem_ctrls0.rdQLenPdf::3                     11                       # What read queue length does an incoming req see
system.mem_ctrls0.rdQLenPdf::4                      0                       # What read queue length does an incoming req see
system.mem_ctrls0.rdQLenPdf::5                      0                       # What read queue length does an incoming req see
system.mem_ctrls0.rdQLenPdf::6                      0                       # What read queue length does an incoming req see
system.mem_ctrls0.rdQLenPdf::7                      0                       # What read queue length does an incoming req see
system.mem_ctrls0.rdQLenPdf::8                      0                       # What read queue length does an incoming req see
system.mem_ctrls0.rdQLenPdf::9                      0                       # What read queue length does an incoming req see
system.mem_ctrls0.rdQLenPdf::10                     0                       # What read queue length does an incoming req see
system.mem_ctrls0.rdQLenPdf::11                     0                       # What read queue length does an incoming req see
system.mem_ctrls0.rdQLenPdf::12                     0                       # What read queue length does an incoming req see
system.mem_ctrls0.rdQLenPdf::13                     0                       # What read queue length does an incoming req see
system.mem_ctrls0.rdQLenPdf::14                     0                       # What read queue length does an incoming req see
system.mem_ctrls0.rdQLenPdf::15                     0                       # What read queue length does an incoming req see
system.mem_ctrls0.rdQLenPdf::16                     0                       # What read queue length does an incoming req see
system.mem_ctrls0.rdQLenPdf::17                     0                       # What read queue length does an incoming req see
system.mem_ctrls0.rdQLenPdf::18                     0                       # What read queue length does an incoming req see
system.mem_ctrls0.rdQLenPdf::19                     0                       # What read queue length does an incoming req see
system.mem_ctrls0.rdQLenPdf::20                     0                       # What read queue length does an incoming req see
system.mem_ctrls0.rdQLenPdf::21                     0                       # What read queue length does an incoming req see
system.mem_ctrls0.rdQLenPdf::22                     0                       # What read queue length does an incoming req see
system.mem_ctrls0.rdQLenPdf::23                     0                       # What read queue length does an incoming req see
system.mem_ctrls0.rdQLenPdf::24                     0                       # What read queue length does an incoming req see
system.mem_ctrls0.rdQLenPdf::25                     0                       # What read queue length does an incoming req see
system.mem_ctrls0.rdQLenPdf::26                     0                       # What read queue length does an incoming req see
system.mem_ctrls0.rdQLenPdf::27                     0                       # What read queue length does an incoming req see
system.mem_ctrls0.rdQLenPdf::28                     0                       # What read queue length does an incoming req see
system.mem_ctrls0.rdQLenPdf::29                     0                       # What read queue length does an incoming req see
system.mem_ctrls0.rdQLenPdf::30                     0                       # What read queue length does an incoming req see
system.mem_ctrls0.rdQLenPdf::31                     0                       # What read queue length does an incoming req see
system.mem_ctrls0.wrQLenPdf::0                      2                       # What write queue length does an incoming req see
system.mem_ctrls0.wrQLenPdf::1                      2                       # What write queue length does an incoming req see
system.mem_ctrls0.wrQLenPdf::2                      2                       # What write queue length does an incoming req see
system.mem_ctrls0.wrQLenPdf::3                      2                       # What write queue length does an incoming req see
system.mem_ctrls0.wrQLenPdf::4                      2                       # What write queue length does an incoming req see
system.mem_ctrls0.wrQLenPdf::5                      2                       # What write queue length does an incoming req see
system.mem_ctrls0.wrQLenPdf::6                      2                       # What write queue length does an incoming req see
system.mem_ctrls0.wrQLenPdf::7                      2                       # What write queue length does an incoming req see
system.mem_ctrls0.wrQLenPdf::8                      2                       # What write queue length does an incoming req see
system.mem_ctrls0.wrQLenPdf::9                      2                       # What write queue length does an incoming req see
system.mem_ctrls0.wrQLenPdf::10                     2                       # What write queue length does an incoming req see
system.mem_ctrls0.wrQLenPdf::11                     2                       # What write queue length does an incoming req see
system.mem_ctrls0.wrQLenPdf::12                     2                       # What write queue length does an incoming req see
system.mem_ctrls0.wrQLenPdf::13                     2                       # What write queue length does an incoming req see
system.mem_ctrls0.wrQLenPdf::14                     2                       # What write queue length does an incoming req see
system.mem_ctrls0.wrQLenPdf::15                   397                       # What write queue length does an incoming req see
system.mem_ctrls0.wrQLenPdf::16                   413                       # What write queue length does an incoming req see
system.mem_ctrls0.wrQLenPdf::17                   625                       # What write queue length does an incoming req see
system.mem_ctrls0.wrQLenPdf::18                   644                       # What write queue length does an incoming req see
system.mem_ctrls0.wrQLenPdf::19                   646                       # What write queue length does an incoming req see
system.mem_ctrls0.wrQLenPdf::20                   646                       # What write queue length does an incoming req see
system.mem_ctrls0.wrQLenPdf::21                   645                       # What write queue length does an incoming req see
system.mem_ctrls0.wrQLenPdf::22                   645                       # What write queue length does an incoming req see
system.mem_ctrls0.wrQLenPdf::23                   645                       # What write queue length does an incoming req see
system.mem_ctrls0.wrQLenPdf::24                   644                       # What write queue length does an incoming req see
system.mem_ctrls0.wrQLenPdf::25                   646                       # What write queue length does an incoming req see
system.mem_ctrls0.wrQLenPdf::26                   646                       # What write queue length does an incoming req see
system.mem_ctrls0.wrQLenPdf::27                   646                       # What write queue length does an incoming req see
system.mem_ctrls0.wrQLenPdf::28                   648                       # What write queue length does an incoming req see
system.mem_ctrls0.wrQLenPdf::29                   648                       # What write queue length does an incoming req see
system.mem_ctrls0.wrQLenPdf::30                   654                       # What write queue length does an incoming req see
system.mem_ctrls0.wrQLenPdf::31                   643                       # What write queue length does an incoming req see
system.mem_ctrls0.wrQLenPdf::32                   643                       # What write queue length does an incoming req see
system.mem_ctrls0.wrQLenPdf::33                     3                       # What write queue length does an incoming req see
system.mem_ctrls0.wrQLenPdf::34                     0                       # What write queue length does an incoming req see
system.mem_ctrls0.wrQLenPdf::35                     0                       # What write queue length does an incoming req see
system.mem_ctrls0.wrQLenPdf::36                     0                       # What write queue length does an incoming req see
system.mem_ctrls0.wrQLenPdf::37                     0                       # What write queue length does an incoming req see
system.mem_ctrls0.wrQLenPdf::38                     0                       # What write queue length does an incoming req see
system.mem_ctrls0.wrQLenPdf::39                     0                       # What write queue length does an incoming req see
system.mem_ctrls0.wrQLenPdf::40                     0                       # What write queue length does an incoming req see
system.mem_ctrls0.wrQLenPdf::41                     0                       # What write queue length does an incoming req see
system.mem_ctrls0.wrQLenPdf::42                     0                       # What write queue length does an incoming req see
system.mem_ctrls0.wrQLenPdf::43                     0                       # What write queue length does an incoming req see
system.mem_ctrls0.wrQLenPdf::44                     0                       # What write queue length does an incoming req see
system.mem_ctrls0.wrQLenPdf::45                     0                       # What write queue length does an incoming req see
system.mem_ctrls0.wrQLenPdf::46                     0                       # What write queue length does an incoming req see
system.mem_ctrls0.wrQLenPdf::47                     0                       # What write queue length does an incoming req see
system.mem_ctrls0.wrQLenPdf::48                     0                       # What write queue length does an incoming req see
system.mem_ctrls0.wrQLenPdf::49                     0                       # What write queue length does an incoming req see
system.mem_ctrls0.wrQLenPdf::50                     0                       # What write queue length does an incoming req see
system.mem_ctrls0.wrQLenPdf::51                     0                       # What write queue length does an incoming req see
system.mem_ctrls0.wrQLenPdf::52                     0                       # What write queue length does an incoming req see
system.mem_ctrls0.wrQLenPdf::53                     0                       # What write queue length does an incoming req see
system.mem_ctrls0.wrQLenPdf::54                     0                       # What write queue length does an incoming req see
system.mem_ctrls0.wrQLenPdf::55                     0                       # What write queue length does an incoming req see
system.mem_ctrls0.wrQLenPdf::56                     0                       # What write queue length does an incoming req see
system.mem_ctrls0.wrQLenPdf::57                     0                       # What write queue length does an incoming req see
system.mem_ctrls0.wrQLenPdf::58                     0                       # What write queue length does an incoming req see
system.mem_ctrls0.wrQLenPdf::59                     0                       # What write queue length does an incoming req see
system.mem_ctrls0.wrQLenPdf::60                     0                       # What write queue length does an incoming req see
system.mem_ctrls0.wrQLenPdf::61                     0                       # What write queue length does an incoming req see
system.mem_ctrls0.wrQLenPdf::62                     0                       # What write queue length does an incoming req see
system.mem_ctrls0.wrQLenPdf::63                     0                       # What write queue length does an incoming req see
system.mem_ctrls0.bytesPerActivate::samples        45605                       # Bytes accessed per row activation
system.mem_ctrls0.bytesPerActivate::mean   134.268786                       # Bytes accessed per row activation
system.mem_ctrls0.bytesPerActivate::gmean    95.769336                       # Bytes accessed per row activation
system.mem_ctrls0.bytesPerActivate::stdev   164.435107                       # Bytes accessed per row activation
system.mem_ctrls0.bytesPerActivate::0-127        30803     67.54%     67.54% # Bytes accessed per row activation
system.mem_ctrls0.bytesPerActivate::128-255         8916     19.55%     87.09% # Bytes accessed per row activation
system.mem_ctrls0.bytesPerActivate::256-383         2253      4.94%     92.03% # Bytes accessed per row activation
system.mem_ctrls0.bytesPerActivate::384-511         1342      2.94%     94.98% # Bytes accessed per row activation
system.mem_ctrls0.bytesPerActivate::512-639          824      1.81%     96.78% # Bytes accessed per row activation
system.mem_ctrls0.bytesPerActivate::640-767          458      1.00%     97.79% # Bytes accessed per row activation
system.mem_ctrls0.bytesPerActivate::768-895          310      0.68%     98.47% # Bytes accessed per row activation
system.mem_ctrls0.bytesPerActivate::896-1023          197      0.43%     98.90% # Bytes accessed per row activation
system.mem_ctrls0.bytesPerActivate::1024-1151          502      1.10%    100.00% # Bytes accessed per row activation
system.mem_ctrls0.bytesPerActivate::total        45605                       # Bytes accessed per row activation
system.mem_ctrls0.rdPerTurnAround::samples          644                       # Reads before turning the bus around for writes
system.mem_ctrls0.rdPerTurnAround::mean    131.268634                       # Reads before turning the bus around for writes
system.mem_ctrls0.rdPerTurnAround::stdev  1072.783292                       # Reads before turning the bus around for writes
system.mem_ctrls0.rdPerTurnAround::0-1023          643     99.84%     99.84% # Reads before turning the bus around for writes
system.mem_ctrls0.rdPerTurnAround::26624-27647            1      0.16%    100.00% # Reads before turning the bus around for writes
system.mem_ctrls0.rdPerTurnAround::total          644                       # Reads before turning the bus around for writes
system.mem_ctrls0.wrPerTurnAround::samples          644                       # Writes before turning the bus around for reads
system.mem_ctrls0.wrPerTurnAround::mean     17.298137                       # Writes before turning the bus around for reads
system.mem_ctrls0.wrPerTurnAround::gmean    17.267713                       # Writes before turning the bus around for reads
system.mem_ctrls0.wrPerTurnAround::stdev     1.019833                       # Writes before turning the bus around for reads
system.mem_ctrls0.wrPerTurnAround::16             234     36.34%     36.34% # Writes before turning the bus around for reads
system.mem_ctrls0.wrPerTurnAround::17              13      2.02%     38.35% # Writes before turning the bus around for reads
system.mem_ctrls0.wrPerTurnAround::18             372     57.76%     96.12% # Writes before turning the bus around for reads
system.mem_ctrls0.wrPerTurnAround::19              21      3.26%     99.38% # Writes before turning the bus around for reads
system.mem_ctrls0.wrPerTurnAround::20               4      0.62%    100.00% # Writes before turning the bus around for reads
system.mem_ctrls0.wrPerTurnAround::total          644                       # Writes before turning the bus around for reads
system.mem_ctrls0.totQLat                  3448333382                       # Total ticks spent queuing
system.mem_ctrls0.totMemAccLat             5033402132                       # Total ticks spent from burst creation until serviced by the DRAM
system.mem_ctrls0.totBusLat                 422685000                       # Total ticks spent in databus transfers
system.mem_ctrls0.avgQLat                    40790.82                       # Average queueing delay per DRAM burst
system.mem_ctrls0.avgBusLat                   5000.00                       # Average bus latency per DRAM burst
system.mem_ctrls0.avgMemAccLat               59540.82                       # Average memory access latency per DRAM burst
system.mem_ctrls0.avgRdBW                        5.10                       # Average DRAM read bandwidth in MiByte/s
system.mem_ctrls0.avgWrBW                        0.67                       # Average achieved write bandwidth in MiByte/s
system.mem_ctrls0.avgRdBWSys                     5.10                       # Average system read bandwidth in MiByte/s
system.mem_ctrls0.avgWrBWSys                     0.67                       # Average system write bandwidth in MiByte/s
system.mem_ctrls0.peakBW                     12800.00                       # Theoretical peak bandwidth in MiByte/s
system.mem_ctrls0.busUtil                        0.05                       # Data bus utilization in percentage
system.mem_ctrls0.busUtilRead                    0.04                       # Data bus utilization in percentage for reads
system.mem_ctrls0.busUtilWrite                   0.01                       # Data bus utilization in percentage for writes
system.mem_ctrls0.avgRdQLen                      1.01                       # Average read queue length when enqueuing
system.mem_ctrls0.avgWrQLen                     17.65                       # Average write queue length when enqueuing
system.mem_ctrls0.readRowHits                   48408                       # Number of row buffer hits during reads
system.mem_ctrls0.writeRowHits                   1664                       # Number of row buffer hits during writes
system.mem_ctrls0.readRowHitRate                57.26                       # Row buffer hit rate for reads
system.mem_ctrls0.writeRowHitRate               14.91                       # Row buffer hit rate for writes
system.mem_ctrls0.avgGap                  11089276.77                       # Average gap between requests
system.mem_ctrls0.pageHitRate                   52.33                       # Row buffer hit rate, read and write combined
system.mem_ctrls0_0.actEnergy               165569460                       # Energy for activate commands per rank (pJ)
system.mem_ctrls0_0.preEnergy                88002255                       # Energy for precharge commands per rank (pJ)
system.mem_ctrls0_0.readEnergy              301258020                       # Energy for read commands per rank (pJ)
system.mem_ctrls0_0.writeEnergy              28882260                       # Energy for write commands per rank (pJ)
system.mem_ctrls0_0.refreshEnergy        6002574240.000001                       # Energy for refresh commands per rank (pJ)
system.mem_ctrls0_0.actBackEnergy          2164311660                       # Energy for active background per rank (pJ)
system.mem_ctrls0_0.preBackEnergy           297295680                       # Energy for precharge background per rank (pJ)
system.mem_ctrls0_0.actPowerDownEnergy    16445856600                       # Energy for active power-down per rank (pJ)
system.mem_ctrls0_0.prePowerDownEnergy     8017692000                       # Energy for precharge power-down per rank (pJ)
system.mem_ctrls0_0.selfRefreshEnergy    240886677795                       # Energy for self refresh per rank (pJ)
system.mem_ctrls0_0.totalEnergy          274399436070                       # Total energy per rank (pJ)
system.mem_ctrls0_0.averagePower           258.416479                       # Core power per rank (mW)
system.mem_ctrls0_0.totalIdleTime        1056317321535                       # Total Idle time Per DRAM Rank
system.mem_ctrls0_0.memoryStateTime::IDLE    540075133                       # Time in different power states
system.mem_ctrls0_0.memoryStateTime::REF   2550572000                       # Time in different power states
system.mem_ctrls0_0.memoryStateTime::SREF 999381287318                       # Time in different power states
system.mem_ctrls0_0.memoryStateTime::PRE_PDN  20879532248                       # Time in different power states
system.mem_ctrls0_0.memoryStateTime::ACT   2432888906                       # Time in different power states
system.mem_ctrls0_0.memoryStateTime::ACT_PDN  36065247213                       # Time in different power states
system.mem_ctrls0_1.actEnergy               160050240                       # Energy for activate commands per rank (pJ)
system.mem_ctrls0_1.preEnergy                85068720                       # Energy for precharge commands per rank (pJ)
system.mem_ctrls0_1.readEnergy              302336160                       # Energy for read commands per rank (pJ)
system.mem_ctrls0_1.writeEnergy              29268540                       # Energy for write commands per rank (pJ)
system.mem_ctrls0_1.refreshEnergy        6032076960.000001                       # Energy for refresh commands per rank (pJ)
system.mem_ctrls0_1.actBackEnergy          2147403750                       # Energy for active background per rank (pJ)
system.mem_ctrls0_1.preBackEnergy           301317600                       # Energy for precharge background per rank (pJ)
system.mem_ctrls0_1.actPowerDownEnergy    16433179800                       # Energy for active power-down per rank (pJ)
system.mem_ctrls0_1.prePowerDownEnergy     7947839520                       # Energy for precharge power-down per rank (pJ)
system.mem_ctrls0_1.selfRefreshEnergy    240989897175                       # Energy for self refresh per rank (pJ)
system.mem_ctrls0_1.totalEnergy          274430211825                       # Total energy per rank (pJ)
system.mem_ctrls0_1.averagePower           258.445462                       # Core power per rank (mW)
system.mem_ctrls0_1.totalIdleTime        1056346684539                       # Total Idle time Per DRAM Rank
system.mem_ctrls0_1.memoryStateTime::IDLE    552303461                       # Time in different power states
system.mem_ctrls0_1.memoryStateTime::REF   2563538000                       # Time in different power states
system.mem_ctrls0_1.memoryStateTime::SREF 999616568318                       # Time in different power states
system.mem_ctrls0_1.memoryStateTime::PRE_PDN  20697604159                       # Time in different power states
system.mem_ctrls0_1.memoryStateTime::ACT   2381838064                       # Time in different power states
system.mem_ctrls0_1.memoryStateTime::ACT_PDN  36037750816                       # Time in different power states
system.mem_ctrls1.pwrStateResidencyTicks::UNDEFINED 31073263763868                       # Cumulative time (in ticks) in various power states
system.mem_ctrls1.bytes_read::cpu.inst            192                       # Number of bytes read from this memory
system.mem_ctrls1.bytes_read::cpu.data            192                       # Number of bytes read from this memory
system.mem_ctrls1.bytes_read::switch_cpus.inst       136768                       # Number of bytes read from this memory
system.mem_ctrls1.bytes_read::switch_cpus.data      3622080                       # Number of bytes read from this memory
system.mem_ctrls1.bytes_read::switch_cpus_1.inst       110400                       # Number of bytes read from this memory
system.mem_ctrls1.bytes_read::switch_cpus_1.data      1561856                       # Number of bytes read from this memory
system.mem_ctrls1.bytes_read::total           5431488                       # Number of bytes read from this memory
system.mem_ctrls1.bytes_inst_read::cpu.inst          192                       # Number of instructions bytes read from this memory
system.mem_ctrls1.bytes_inst_read::switch_cpus.inst       136768                       # Number of instructions bytes read from this memory
system.mem_ctrls1.bytes_inst_read::switch_cpus_1.inst       110400                       # Number of instructions bytes read from this memory
system.mem_ctrls1.bytes_inst_read::total       247360                       # Number of instructions bytes read from this memory
system.mem_ctrls1.bytes_written::writebacks       724608                       # Number of bytes written to this memory
system.mem_ctrls1.bytes_written::total         724608                       # Number of bytes written to this memory
system.mem_ctrls1.num_reads::cpu.inst               3                       # Number of read requests responded to by this memory
system.mem_ctrls1.num_reads::cpu.data               3                       # Number of read requests responded to by this memory
system.mem_ctrls1.num_reads::switch_cpus.inst         2137                       # Number of read requests responded to by this memory
system.mem_ctrls1.num_reads::switch_cpus.data        56595                       # Number of read requests responded to by this memory
system.mem_ctrls1.num_reads::switch_cpus_1.inst         1725                       # Number of read requests responded to by this memory
system.mem_ctrls1.num_reads::switch_cpus_1.data        24404                       # Number of read requests responded to by this memory
system.mem_ctrls1.num_reads::total              84867                       # Number of read requests responded to by this memory
system.mem_ctrls1.num_writes::writebacks        11322                       # Number of write requests responded to by this memory
system.mem_ctrls1.num_writes::total             11322                       # Number of write requests responded to by this memory
system.mem_ctrls1.bw_read::cpu.inst               181                       # Total read bandwidth from this memory (bytes/s)
system.mem_ctrls1.bw_read::cpu.data               181                       # Total read bandwidth from this memory (bytes/s)
system.mem_ctrls1.bw_read::switch_cpus.inst       128802                       # Total read bandwidth from this memory (bytes/s)
system.mem_ctrls1.bw_read::switch_cpus.data      3411105                       # Total read bandwidth from this memory (bytes/s)
system.mem_ctrls1.bw_read::switch_cpus_1.inst       103970                       # Total read bandwidth from this memory (bytes/s)
system.mem_ctrls1.bw_read::switch_cpus_1.data      1470883                       # Total read bandwidth from this memory (bytes/s)
system.mem_ctrls1.bw_read::total              5115120                       # Total read bandwidth from this memory (bytes/s)
system.mem_ctrls1.bw_inst_read::cpu.inst          181                       # Instruction read bandwidth from this memory (bytes/s)
system.mem_ctrls1.bw_inst_read::switch_cpus.inst       128802                       # Instruction read bandwidth from this memory (bytes/s)
system.mem_ctrls1.bw_inst_read::switch_cpus_1.inst       103970                       # Instruction read bandwidth from this memory (bytes/s)
system.mem_ctrls1.bw_inst_read::total          232952                       # Instruction read bandwidth from this memory (bytes/s)
system.mem_ctrls1.bw_write::writebacks         682402                       # Write bandwidth from this memory (bytes/s)
system.mem_ctrls1.bw_write::total              682402                       # Write bandwidth from this memory (bytes/s)
system.mem_ctrls1.bw_total::writebacks         682402                       # Total bandwidth to/from this memory (bytes/s)
system.mem_ctrls1.bw_total::cpu.inst              181                       # Total bandwidth to/from this memory (bytes/s)
system.mem_ctrls1.bw_total::cpu.data              181                       # Total bandwidth to/from this memory (bytes/s)
system.mem_ctrls1.bw_total::switch_cpus.inst       128802                       # Total bandwidth to/from this memory (bytes/s)
system.mem_ctrls1.bw_total::switch_cpus.data      3411105                       # Total bandwidth to/from this memory (bytes/s)
system.mem_ctrls1.bw_total::switch_cpus_1.inst       103970                       # Total bandwidth to/from this memory (bytes/s)
system.mem_ctrls1.bw_total::switch_cpus_1.data      1470883                       # Total bandwidth to/from this memory (bytes/s)
system.mem_ctrls1.bw_total::total             5797522                       # Total bandwidth to/from this memory (bytes/s)
system.mem_ctrls1.readReqs                      84867                       # Number of read requests accepted
system.mem_ctrls1.writeReqs                     11322                       # Number of write requests accepted
system.mem_ctrls1.readBursts                    84867                       # Number of DRAM read bursts, including those serviced by the write queue
system.mem_ctrls1.writeBursts                   11322                       # Number of DRAM write bursts, including those merged in the write queue
system.mem_ctrls1.bytesReadDRAM               5428672                       # Total number of bytes read from DRAM
system.mem_ctrls1.bytesReadWrQ                   2816                       # Total number of bytes read from write queue
system.mem_ctrls1.bytesWritten                 722752                       # Total number of bytes written to DRAM
system.mem_ctrls1.bytesReadSys                5431488                       # Total read bytes from the system interface side
system.mem_ctrls1.bytesWrittenSys              724608                       # Total written bytes from the system interface side
system.mem_ctrls1.servicedByWrQ                    44                       # Number of DRAM read bursts serviced by the write queue
system.mem_ctrls1.mergedWrBursts                    0                       # Number of DRAM write bursts merged with an existing one
system.mem_ctrls1.neitherReadNorWriteReqs            0                       # Number of requests that are neither read nor write
system.mem_ctrls1.perBankRdBursts::0             5294                       # Per bank write bursts
system.mem_ctrls1.perBankRdBursts::1             5369                       # Per bank write bursts
system.mem_ctrls1.perBankRdBursts::2             5884                       # Per bank write bursts
system.mem_ctrls1.perBankRdBursts::3             5577                       # Per bank write bursts
system.mem_ctrls1.perBankRdBursts::4             5186                       # Per bank write bursts
system.mem_ctrls1.perBankRdBursts::5             5081                       # Per bank write bursts
system.mem_ctrls1.perBankRdBursts::6             4852                       # Per bank write bursts
system.mem_ctrls1.perBankRdBursts::7             4835                       # Per bank write bursts
system.mem_ctrls1.perBankRdBursts::8             5119                       # Per bank write bursts
system.mem_ctrls1.perBankRdBursts::9             4989                       # Per bank write bursts
system.mem_ctrls1.perBankRdBursts::10            4923                       # Per bank write bursts
system.mem_ctrls1.perBankRdBursts::11            4738                       # Per bank write bursts
system.mem_ctrls1.perBankRdBursts::12            5977                       # Per bank write bursts
system.mem_ctrls1.perBankRdBursts::13            5561                       # Per bank write bursts
system.mem_ctrls1.perBankRdBursts::14            5596                       # Per bank write bursts
system.mem_ctrls1.perBankRdBursts::15            5842                       # Per bank write bursts
system.mem_ctrls1.perBankWrBursts::0              710                       # Per bank write bursts
system.mem_ctrls1.perBankWrBursts::1              713                       # Per bank write bursts
system.mem_ctrls1.perBankWrBursts::2              766                       # Per bank write bursts
system.mem_ctrls1.perBankWrBursts::3              765                       # Per bank write bursts
system.mem_ctrls1.perBankWrBursts::4              735                       # Per bank write bursts
system.mem_ctrls1.perBankWrBursts::5              642                       # Per bank write bursts
system.mem_ctrls1.perBankWrBursts::6              523                       # Per bank write bursts
system.mem_ctrls1.perBankWrBursts::7              623                       # Per bank write bursts
system.mem_ctrls1.perBankWrBursts::8              727                       # Per bank write bursts
system.mem_ctrls1.perBankWrBursts::9              499                       # Per bank write bursts
system.mem_ctrls1.perBankWrBursts::10             592                       # Per bank write bursts
system.mem_ctrls1.perBankWrBursts::11             618                       # Per bank write bursts
system.mem_ctrls1.perBankWrBursts::12             857                       # Per bank write bursts
system.mem_ctrls1.perBankWrBursts::13             820                       # Per bank write bursts
system.mem_ctrls1.perBankWrBursts::14             886                       # Per bank write bursts
system.mem_ctrls1.perBankWrBursts::15             817                       # Per bank write bursts
system.mem_ctrls1.numRdRetry                        0                       # Number of times read queue was full causing retry
system.mem_ctrls1.numWrRetry                        0                       # Number of times write queue was full causing retry
system.mem_ctrls1.totGap                 1061848726695                       # Total gap between requests
system.mem_ctrls1.readPktSize::0                    0                       # Read request sizes (log2)
system.mem_ctrls1.readPktSize::1                    0                       # Read request sizes (log2)
system.mem_ctrls1.readPktSize::2                    0                       # Read request sizes (log2)
system.mem_ctrls1.readPktSize::3                    0                       # Read request sizes (log2)
system.mem_ctrls1.readPktSize::4                    0                       # Read request sizes (log2)
system.mem_ctrls1.readPktSize::5                    0                       # Read request sizes (log2)
system.mem_ctrls1.readPktSize::6                84867                       # Read request sizes (log2)
system.mem_ctrls1.writePktSize::0                   0                       # Write request sizes (log2)
system.mem_ctrls1.writePktSize::1                   0                       # Write request sizes (log2)
system.mem_ctrls1.writePktSize::2                   0                       # Write request sizes (log2)
system.mem_ctrls1.writePktSize::3                   0                       # Write request sizes (log2)
system.mem_ctrls1.writePktSize::4                   0                       # Write request sizes (log2)
system.mem_ctrls1.writePktSize::5                   0                       # Write request sizes (log2)
system.mem_ctrls1.writePktSize::6               11322                       # Write request sizes (log2)
system.mem_ctrls1.rdQLenPdf::0                  82301                       # What read queue length does an incoming req see
system.mem_ctrls1.rdQLenPdf::1                   2406                       # What read queue length does an incoming req see
system.mem_ctrls1.rdQLenPdf::2                    102                       # What read queue length does an incoming req see
system.mem_ctrls1.rdQLenPdf::3                     13                       # What read queue length does an incoming req see
system.mem_ctrls1.rdQLenPdf::4                      1                       # What read queue length does an incoming req see
system.mem_ctrls1.rdQLenPdf::5                      0                       # What read queue length does an incoming req see
system.mem_ctrls1.rdQLenPdf::6                      0                       # What read queue length does an incoming req see
system.mem_ctrls1.rdQLenPdf::7                      0                       # What read queue length does an incoming req see
system.mem_ctrls1.rdQLenPdf::8                      0                       # What read queue length does an incoming req see
system.mem_ctrls1.rdQLenPdf::9                      0                       # What read queue length does an incoming req see
system.mem_ctrls1.rdQLenPdf::10                     0                       # What read queue length does an incoming req see
system.mem_ctrls1.rdQLenPdf::11                     0                       # What read queue length does an incoming req see
system.mem_ctrls1.rdQLenPdf::12                     0                       # What read queue length does an incoming req see
system.mem_ctrls1.rdQLenPdf::13                     0                       # What read queue length does an incoming req see
system.mem_ctrls1.rdQLenPdf::14                     0                       # What read queue length does an incoming req see
system.mem_ctrls1.rdQLenPdf::15                     0                       # What read queue length does an incoming req see
system.mem_ctrls1.rdQLenPdf::16                     0                       # What read queue length does an incoming req see
system.mem_ctrls1.rdQLenPdf::17                     0                       # What read queue length does an incoming req see
system.mem_ctrls1.rdQLenPdf::18                     0                       # What read queue length does an incoming req see
system.mem_ctrls1.rdQLenPdf::19                     0                       # What read queue length does an incoming req see
system.mem_ctrls1.rdQLenPdf::20                     0                       # What read queue length does an incoming req see
system.mem_ctrls1.rdQLenPdf::21                     0                       # What read queue length does an incoming req see
system.mem_ctrls1.rdQLenPdf::22                     0                       # What read queue length does an incoming req see
system.mem_ctrls1.rdQLenPdf::23                     0                       # What read queue length does an incoming req see
system.mem_ctrls1.rdQLenPdf::24                     0                       # What read queue length does an incoming req see
system.mem_ctrls1.rdQLenPdf::25                     0                       # What read queue length does an incoming req see
system.mem_ctrls1.rdQLenPdf::26                     0                       # What read queue length does an incoming req see
system.mem_ctrls1.rdQLenPdf::27                     0                       # What read queue length does an incoming req see
system.mem_ctrls1.rdQLenPdf::28                     0                       # What read queue length does an incoming req see
system.mem_ctrls1.rdQLenPdf::29                     0                       # What read queue length does an incoming req see
system.mem_ctrls1.rdQLenPdf::30                     0                       # What read queue length does an incoming req see
system.mem_ctrls1.rdQLenPdf::31                     0                       # What read queue length does an incoming req see
system.mem_ctrls1.wrQLenPdf::0                      2                       # What write queue length does an incoming req see
system.mem_ctrls1.wrQLenPdf::1                      2                       # What write queue length does an incoming req see
system.mem_ctrls1.wrQLenPdf::2                      2                       # What write queue length does an incoming req see
system.mem_ctrls1.wrQLenPdf::3                      2                       # What write queue length does an incoming req see
system.mem_ctrls1.wrQLenPdf::4                      2                       # What write queue length does an incoming req see
system.mem_ctrls1.wrQLenPdf::5                      2                       # What write queue length does an incoming req see
system.mem_ctrls1.wrQLenPdf::6                      2                       # What write queue length does an incoming req see
system.mem_ctrls1.wrQLenPdf::7                      2                       # What write queue length does an incoming req see
system.mem_ctrls1.wrQLenPdf::8                      2                       # What write queue length does an incoming req see
system.mem_ctrls1.wrQLenPdf::9                      2                       # What write queue length does an incoming req see
system.mem_ctrls1.wrQLenPdf::10                     2                       # What write queue length does an incoming req see
system.mem_ctrls1.wrQLenPdf::11                     2                       # What write queue length does an incoming req see
system.mem_ctrls1.wrQLenPdf::12                     2                       # What write queue length does an incoming req see
system.mem_ctrls1.wrQLenPdf::13                     2                       # What write queue length does an incoming req see
system.mem_ctrls1.wrQLenPdf::14                     2                       # What write queue length does an incoming req see
system.mem_ctrls1.wrQLenPdf::15                   387                       # What write queue length does an incoming req see
system.mem_ctrls1.wrQLenPdf::16                   397                       # What write queue length does an incoming req see
system.mem_ctrls1.wrQLenPdf::17                   632                       # What write queue length does an incoming req see
system.mem_ctrls1.wrQLenPdf::18                   658                       # What write queue length does an incoming req see
system.mem_ctrls1.wrQLenPdf::19                   658                       # What write queue length does an incoming req see
system.mem_ctrls1.wrQLenPdf::20                   661                       # What write queue length does an incoming req see
system.mem_ctrls1.wrQLenPdf::21                   664                       # What write queue length does an incoming req see
system.mem_ctrls1.wrQLenPdf::22                   657                       # What write queue length does an incoming req see
system.mem_ctrls1.wrQLenPdf::23                   662                       # What write queue length does an incoming req see
system.mem_ctrls1.wrQLenPdf::24                   658                       # What write queue length does an incoming req see
system.mem_ctrls1.wrQLenPdf::25                   656                       # What write queue length does an incoming req see
system.mem_ctrls1.wrQLenPdf::26                   659                       # What write queue length does an incoming req see
system.mem_ctrls1.wrQLenPdf::27                   659                       # What write queue length does an incoming req see
system.mem_ctrls1.wrQLenPdf::28                   659                       # What write queue length does an incoming req see
system.mem_ctrls1.wrQLenPdf::29                   655                       # What write queue length does an incoming req see
system.mem_ctrls1.wrQLenPdf::30                   662                       # What write queue length does an incoming req see
system.mem_ctrls1.wrQLenPdf::31                   654                       # What write queue length does an incoming req see
system.mem_ctrls1.wrQLenPdf::32                   654                       # What write queue length does an incoming req see
system.mem_ctrls1.wrQLenPdf::33                     0                       # What write queue length does an incoming req see
system.mem_ctrls1.wrQLenPdf::34                     0                       # What write queue length does an incoming req see
system.mem_ctrls1.wrQLenPdf::35                     0                       # What write queue length does an incoming req see
system.mem_ctrls1.wrQLenPdf::36                     0                       # What write queue length does an incoming req see
system.mem_ctrls1.wrQLenPdf::37                     0                       # What write queue length does an incoming req see
system.mem_ctrls1.wrQLenPdf::38                     0                       # What write queue length does an incoming req see
system.mem_ctrls1.wrQLenPdf::39                     0                       # What write queue length does an incoming req see
system.mem_ctrls1.wrQLenPdf::40                     0                       # What write queue length does an incoming req see
system.mem_ctrls1.wrQLenPdf::41                     0                       # What write queue length does an incoming req see
system.mem_ctrls1.wrQLenPdf::42                     0                       # What write queue length does an incoming req see
system.mem_ctrls1.wrQLenPdf::43                     0                       # What write queue length does an incoming req see
system.mem_ctrls1.wrQLenPdf::44                     0                       # What write queue length does an incoming req see
system.mem_ctrls1.wrQLenPdf::45                     0                       # What write queue length does an incoming req see
system.mem_ctrls1.wrQLenPdf::46                     0                       # What write queue length does an incoming req see
system.mem_ctrls1.wrQLenPdf::47                     0                       # What write queue length does an incoming req see
system.mem_ctrls1.wrQLenPdf::48                     0                       # What write queue length does an incoming req see
system.mem_ctrls1.wrQLenPdf::49                     0                       # What write queue length does an incoming req see
system.mem_ctrls1.wrQLenPdf::50                     0                       # What write queue length does an incoming req see
system.mem_ctrls1.wrQLenPdf::51                     0                       # What write queue length does an incoming req see
system.mem_ctrls1.wrQLenPdf::52                     0                       # What write queue length does an incoming req see
system.mem_ctrls1.wrQLenPdf::53                     0                       # What write queue length does an incoming req see
system.mem_ctrls1.wrQLenPdf::54                     0                       # What write queue length does an incoming req see
system.mem_ctrls1.wrQLenPdf::55                     0                       # What write queue length does an incoming req see
system.mem_ctrls1.wrQLenPdf::56                     0                       # What write queue length does an incoming req see
system.mem_ctrls1.wrQLenPdf::57                     0                       # What write queue length does an incoming req see
system.mem_ctrls1.wrQLenPdf::58                     0                       # What write queue length does an incoming req see
system.mem_ctrls1.wrQLenPdf::59                     0                       # What write queue length does an incoming req see
system.mem_ctrls1.wrQLenPdf::60                     0                       # What write queue length does an incoming req see
system.mem_ctrls1.wrQLenPdf::61                     0                       # What write queue length does an incoming req see
system.mem_ctrls1.wrQLenPdf::62                     0                       # What write queue length does an incoming req see
system.mem_ctrls1.wrQLenPdf::63                     0                       # What write queue length does an incoming req see
system.mem_ctrls1.bytesPerActivate::samples        45907                       # Bytes accessed per row activation
system.mem_ctrls1.bytesPerActivate::mean   133.994728                       # Bytes accessed per row activation
system.mem_ctrls1.bytesPerActivate::gmean    95.703261                       # Bytes accessed per row activation
system.mem_ctrls1.bytesPerActivate::stdev   163.641558                       # Bytes accessed per row activation
system.mem_ctrls1.bytesPerActivate::0-127        30990     67.51%     67.51% # Bytes accessed per row activation
system.mem_ctrls1.bytesPerActivate::128-255         9032     19.67%     87.18% # Bytes accessed per row activation
system.mem_ctrls1.bytesPerActivate::256-383         2240      4.88%     92.06% # Bytes accessed per row activation
system.mem_ctrls1.bytesPerActivate::384-511         1342      2.92%     94.98% # Bytes accessed per row activation
system.mem_ctrls1.bytesPerActivate::512-639          775      1.69%     96.67% # Bytes accessed per row activation
system.mem_ctrls1.bytesPerActivate::640-767          540      1.18%     97.85% # Bytes accessed per row activation
system.mem_ctrls1.bytesPerActivate::768-895          328      0.71%     98.56% # Bytes accessed per row activation
system.mem_ctrls1.bytesPerActivate::896-1023          185      0.40%     98.97% # Bytes accessed per row activation
system.mem_ctrls1.bytesPerActivate::1024-1151          475      1.03%    100.00% # Bytes accessed per row activation
system.mem_ctrls1.bytesPerActivate::total        45907                       # Bytes accessed per row activation
system.mem_ctrls1.rdPerTurnAround::samples          655                       # Reads before turning the bus around for writes
system.mem_ctrls1.rdPerTurnAround::mean    129.442748                       # Reads before turning the bus around for writes
system.mem_ctrls1.rdPerTurnAround::gmean    75.405708                       # Reads before turning the bus around for writes
system.mem_ctrls1.rdPerTurnAround::stdev  1063.375847                       # Reads before turning the bus around for writes
system.mem_ctrls1.rdPerTurnAround::0-1023          654     99.85%     99.85% # Reads before turning the bus around for writes
system.mem_ctrls1.rdPerTurnAround::26624-27647            1      0.15%    100.00% # Reads before turning the bus around for writes
system.mem_ctrls1.rdPerTurnAround::total          655                       # Reads before turning the bus around for writes
system.mem_ctrls1.wrPerTurnAround::samples          655                       # Writes before turning the bus around for reads
system.mem_ctrls1.wrPerTurnAround::mean     17.241221                       # Writes before turning the bus around for reads
system.mem_ctrls1.wrPerTurnAround::gmean    17.208495                       # Writes before turning the bus around for reads
system.mem_ctrls1.wrPerTurnAround::stdev     1.066509                       # Writes before turning the bus around for reads
system.mem_ctrls1.wrPerTurnAround::16             260     39.69%     39.69% # Writes before turning the bus around for reads
system.mem_ctrls1.wrPerTurnAround::17               7      1.07%     40.76% # Writes before turning the bus around for reads
system.mem_ctrls1.wrPerTurnAround::18             365     55.73%     96.49% # Writes before turning the bus around for reads
system.mem_ctrls1.wrPerTurnAround::19              21      3.21%     99.69% # Writes before turning the bus around for reads
system.mem_ctrls1.wrPerTurnAround::20               1      0.15%     99.85% # Writes before turning the bus around for reads
system.mem_ctrls1.wrPerTurnAround::25               1      0.15%    100.00% # Writes before turning the bus around for reads
system.mem_ctrls1.wrPerTurnAround::total          655                       # Writes before turning the bus around for reads
system.mem_ctrls1.totQLat                  3464230662                       # Total ticks spent queuing
system.mem_ctrls1.totMemAccLat             5054661912                       # Total ticks spent from burst creation until serviced by the DRAM
system.mem_ctrls1.totBusLat                 424115000                       # Total ticks spent in databus transfers
system.mem_ctrls1.avgQLat                    40840.70                       # Average queueing delay per DRAM burst
system.mem_ctrls1.avgBusLat                   5000.00                       # Average bus latency per DRAM burst
system.mem_ctrls1.avgMemAccLat               59590.70                       # Average memory access latency per DRAM burst
system.mem_ctrls1.avgRdBW                        5.11                       # Average DRAM read bandwidth in MiByte/s
system.mem_ctrls1.avgWrBW                        0.68                       # Average achieved write bandwidth in MiByte/s
system.mem_ctrls1.avgRdBWSys                     5.12                       # Average system read bandwidth in MiByte/s
system.mem_ctrls1.avgWrBWSys                     0.68                       # Average system write bandwidth in MiByte/s
system.mem_ctrls1.peakBW                     12800.00                       # Theoretical peak bandwidth in MiByte/s
system.mem_ctrls1.busUtil                        0.05                       # Data bus utilization in percentage
system.mem_ctrls1.busUtilRead                    0.04                       # Data bus utilization in percentage for reads
system.mem_ctrls1.busUtilWrite                   0.01                       # Data bus utilization in percentage for writes
system.mem_ctrls1.avgRdQLen                      1.00                       # Average read queue length when enqueuing
system.mem_ctrls1.avgWrQLen                     18.10                       # Average write queue length when enqueuing
system.mem_ctrls1.readRowHits                   48453                       # Number of row buffer hits during reads
system.mem_ctrls1.writeRowHits                   1754                       # Number of row buffer hits during writes
system.mem_ctrls1.readRowHitRate                57.12                       # Row buffer hit rate for reads
system.mem_ctrls1.writeRowHitRate               15.49                       # Row buffer hit rate for writes
system.mem_ctrls1.avgGap                  11039190.83                       # Average gap between requests
system.mem_ctrls1.pageHitRate                   52.22                       # Row buffer hit rate, read and write combined
system.mem_ctrls1_0.actEnergy               164705520                       # Energy for activate commands per rank (pJ)
system.mem_ctrls1_0.preEnergy                87539265                       # Energy for precharge commands per rank (pJ)
system.mem_ctrls1_0.readEnergy              300436920                       # Energy for read commands per rank (pJ)
system.mem_ctrls1_0.writeEnergy              28589940                       # Energy for write commands per rank (pJ)
system.mem_ctrls1_0.refreshEnergy        6009335280.000001                       # Energy for refresh commands per rank (pJ)
system.mem_ctrls1_0.actBackEnergy          2116668210                       # Energy for active background per rank (pJ)
system.mem_ctrls1_0.preBackEnergy           297302880                       # Energy for precharge background per rank (pJ)
system.mem_ctrls1_0.actPowerDownEnergy    16403957040                       # Energy for active power-down per rank (pJ)
system.mem_ctrls1_0.prePowerDownEnergy     8022676800                       # Energy for precharge power-down per rank (pJ)
system.mem_ctrls1_0.selfRefreshEnergy    240951468735                       # Energy for self refresh per rank (pJ)
system.mem_ctrls1_0.totalEnergy          274385138520                       # Total energy per rank (pJ)
system.mem_ctrls1_0.averagePower           258.403014                       # Core power per rank (mW)
system.mem_ctrls1_0.totalIdleTime        1056426353933                       # Total Idle time Per DRAM Rank
system.mem_ctrls1_0.memoryStateTime::IDLE    542723220                       # Time in different power states
system.mem_ctrls1_0.memoryStateTime::REF   2553654000                       # Time in different power states
system.mem_ctrls1_0.memoryStateTime::SREF 999562111143                       # Time in different power states
system.mem_ctrls1_0.memoryStateTime::PRE_PDN  20892367118                       # Time in different power states
system.mem_ctrls1_0.memoryStateTime::ACT   2325111490                       # Time in different power states
system.mem_ctrls1_0.memoryStateTime::ACT_PDN  35973635847                       # Time in different power states
system.mem_ctrls1_1.actEnergy               163084740                       # Energy for activate commands per rank (pJ)
system.mem_ctrls1_1.preEnergy                86677800                       # Energy for precharge commands per rank (pJ)
system.mem_ctrls1_1.readEnergy              305199300                       # Energy for read commands per rank (pJ)
system.mem_ctrls1_1.writeEnergy              30359520                       # Energy for write commands per rank (pJ)
system.mem_ctrls1_1.refreshEnergy        6050516160.000001                       # Energy for refresh commands per rank (pJ)
system.mem_ctrls1_1.actBackEnergy          2125977450                       # Energy for active background per rank (pJ)
system.mem_ctrls1_1.preBackEnergy           302211840                       # Energy for precharge background per rank (pJ)
system.mem_ctrls1_1.actPowerDownEnergy    16557988140                       # Energy for active power-down per rank (pJ)
system.mem_ctrls1_1.prePowerDownEnergy     7935693120                       # Energy for precharge power-down per rank (pJ)
system.mem_ctrls1_1.selfRefreshEnergy    240945308880                       # Energy for self refresh per rank (pJ)
system.mem_ctrls1_1.totalEnergy          274504874640                       # Total energy per rank (pJ)
system.mem_ctrls1_1.averagePower           258.515776                       # Core power per rank (mW)
system.mem_ctrls1_1.totalIdleTime        1056396205989                       # Total Idle time Per DRAM Rank
system.mem_ctrls1_1.memoryStateTime::IDLE    553536714                       # Time in different power states
system.mem_ctrls1_1.memoryStateTime::REF   2571356000                       # Time in different power states
system.mem_ctrls1_1.memoryStateTime::SREF 999419000170                       # Time in different power states
system.mem_ctrls1_1.memoryStateTime::PRE_PDN  20665990348                       # Time in different power states
system.mem_ctrls1_1.memoryStateTime::ACT   2328298717                       # Time in different power states
system.mem_ctrls1_1.memoryStateTime::ACT_PDN  36311420869                       # Time in different power states
system.pwrStateResidencyTicks::UNDEFINED 31073263763868                       # Cumulative time (in ticks) in various power states
system.cpu.branchPred.lookups                       6                       # Number of BP lookups
system.cpu.branchPred.condPredicted                 3                       # Number of conditional branches predicted
system.cpu.branchPred.condIncorrect                 3                       # Number of conditional branches incorrect
system.cpu.branchPred.BTBLookups                    3                       # Number of BTB lookups
system.cpu.branchPred.BTBHits                       0                       # Number of BTB hits
system.cpu.branchPred.BTBCorrect                    0                       # Number of correct BTB predictions (this stat may not work properly.
system.cpu.branchPred.BTBHitPct              0.000000                       # BTB Hit Percentage
system.cpu.branchPred.usedRAS                       0                       # Number of times the RAS was used to get a target.
system.cpu.branchPred.RASInCorrect                  0                       # Number of incorrect RAS predictions.
system.cpu.branchPred.indirectLookups               1                       # Number of indirect predictor lookups.
system.cpu.branchPred.indirectHits                  0                       # Number of indirect target hits.
system.cpu.branchPred.indirectMisses                1                       # Number of indirect misses.
system.cpu.branchPredindirectMispredicted            1                       # Number of mispredicted indirect branches.
system.cpu_voltage_domain.voltage                   1                       # Voltage in Volts
system.cpu_clk_domain.clock                       333                       # Clock period in ticks
system.cpu.dtb.fetch_hits                           0                       # ITB hits
system.cpu.dtb.fetch_misses                         0                       # ITB misses
system.cpu.dtb.fetch_acv                            0                       # ITB acv
system.cpu.dtb.fetch_accesses                       0                       # ITB accesses
system.cpu.dtb.read_hits                            5                       # DTB read hits
system.cpu.dtb.read_misses                          0                       # DTB read misses
system.cpu.dtb.read_acv                             0                       # DTB read access violations
system.cpu.dtb.read_accesses                        5                       # DTB read accesses
system.cpu.dtb.write_hits                           0                       # DTB write hits
system.cpu.dtb.write_misses                         0                       # DTB write misses
system.cpu.dtb.write_acv                            0                       # DTB write access violations
system.cpu.dtb.write_accesses                       0                       # DTB write accesses
system.cpu.dtb.data_hits                            5                       # DTB hits
system.cpu.dtb.data_misses                          0                       # DTB misses
system.cpu.dtb.data_acv                             0                       # DTB access violations
system.cpu.dtb.data_accesses                        5                       # DTB accesses
system.cpu.itb.fetch_hits                           7                       # ITB hits
system.cpu.itb.fetch_misses                         0                       # ITB misses
system.cpu.itb.fetch_acv                            0                       # ITB acv
system.cpu.itb.fetch_accesses                       7                       # ITB accesses
system.cpu.itb.read_hits                            0                       # DTB read hits
system.cpu.itb.read_misses                          0                       # DTB read misses
system.cpu.itb.read_acv                             0                       # DTB read access violations
system.cpu.itb.read_accesses                        0                       # DTB read accesses
system.cpu.itb.write_hits                           0                       # DTB write hits
system.cpu.itb.write_misses                         0                       # DTB write misses
system.cpu.itb.write_acv                            0                       # DTB write access violations
system.cpu.itb.write_accesses                       0                       # DTB write accesses
system.cpu.itb.data_hits                            0                       # DTB hits
system.cpu.itb.data_misses                          0                       # DTB misses
system.cpu.itb.data_acv                             0                       # DTB access violations
system.cpu.itb.data_accesses                        0                       # DTB accesses
system.cpu.workload.num_syscalls                    9                       # Number of system calls
system.cpu.pwrStateResidencyTicks::ON    1061849602818                       # Cumulative time (in ticks) in various power states
system.cpu.numCycles                              607                       # number of cpu cycles simulated
system.cpu.numWorkItemsStarted                      0                       # number of work items this cpu started
system.cpu.numWorkItemsCompleted                    0                       # number of work items this cpu completed
system.cpu.fetch.icacheStallCycles                 50                       # Number of cycles fetch is stalled on an Icache miss
system.cpu.fetch.Insts                             34                       # Number of instructions fetch has processed
system.cpu.fetch.Branches                           6                       # Number of branches that fetch encountered
system.cpu.fetch.Cycles                             5                       # Number of cycles fetch has run and was not squashing or blocked
system.cpu.fetch.SquashCycles                       9                       # Number of cycles fetch has spent squashing
system.cpu.fetch.PendingDrainCycles                 6                       # Number of cycles fetch has spent waiting on pipes to drain
system.cpu.fetch.CacheLines                         7                       # Number of cache lines fetched
system.cpu.fetch.IcacheSquashes                     4                       # Number of outstanding Icache misses that were squashed
system.cpu.fetch.rateDist::samples                 65                       # Number of instructions fetched each cycle (Total)
system.cpu.fetch.rateDist::mean              0.523077                       # Number of instructions fetched each cycle (Total)
system.cpu.fetch.rateDist::stdev             1.880057                       # Number of instructions fetched each cycle (Total)
system.cpu.fetch.rateDist::underflows               0      0.00%      0.00% # Number of instructions fetched each cycle (Total)
system.cpu.fetch.rateDist::0                       60     92.31%     92.31% # Number of instructions fetched each cycle (Total)
system.cpu.fetch.rateDist::1                        0      0.00%     92.31% # Number of instructions fetched each cycle (Total)
system.cpu.fetch.rateDist::2                        0      0.00%     92.31% # Number of instructions fetched each cycle (Total)
system.cpu.fetch.rateDist::3                        0      0.00%     92.31% # Number of instructions fetched each cycle (Total)
system.cpu.fetch.rateDist::4                        1      1.54%     93.85% # Number of instructions fetched each cycle (Total)
system.cpu.fetch.rateDist::5                        0      0.00%     93.85% # Number of instructions fetched each cycle (Total)
system.cpu.fetch.rateDist::6                        1      1.54%     95.38% # Number of instructions fetched each cycle (Total)
system.cpu.fetch.rateDist::7                        0      0.00%     95.38% # Number of instructions fetched each cycle (Total)
system.cpu.fetch.rateDist::8                        3      4.62%    100.00% # Number of instructions fetched each cycle (Total)
system.cpu.fetch.rateDist::overflows                0      0.00%    100.00% # Number of instructions fetched each cycle (Total)
system.cpu.fetch.rateDist::min_value                0                       # Number of instructions fetched each cycle (Total)
system.cpu.fetch.rateDist::max_value                8                       # Number of instructions fetched each cycle (Total)
system.cpu.fetch.rateDist::total                   65                       # Number of instructions fetched each cycle (Total)
system.cpu.fetch.branchRate                  0.009885                       # Number of branch fetches per cycle
system.cpu.fetch.rate                        0.056013                       # Number of inst fetches per cycle
[...]
system.switch_cpus_1.iq.int_inst_queue_wakeup_accesses    235692823                       # Number of integer instruction queue wakeup accesses
system.switch_cpus_1.iq.fp_inst_queue_reads       478883                       # Number of floating instruction queue reads
system.switch_cpus_1.iq.fp_inst_queue_writes       343471                       # Number of floating instruction queue writes
system.switch_cpus_1.iq.fp_inst_queue_wakeup_accesses       211337                       # Number of floating instruction queue wakeup accesses
system.switch_cpus_1.iq.int_alu_accesses    249232427                       # Number of integer alu accesses
system.switch_cpus_1.iq.fp_alu_accesses        245687                       # Number of floating point alu accesses
system.switch_cpus_1.iew.lsq.thread0.forwLoads      8577270                       # Number of loads that had data forwarded from stores
system.switch_cpus_1.iew.lsq.thread0.invAddrLoads            0                       # Number of loads ignored due to an invalid address
system.switch_cpus_1.iew.lsq.thread0.squashedLoads     24816083                       # Number of loads squashed
system.switch_cpus_1.iew.lsq.thread0.ignoredResponses        43293                       # Number of memory responses ignored because the instruction is squashed
system.switch_cpus_1.iew.lsq.thread0.memOrderViolation        81951                       # Number of memory ordering violations
system.switch_cpus_1.iew.lsq.thread0.squashedStores     10639051                       # Number of stores squashed
system.switch_cpus_1.iew.lsq.thread0.invAddrSwpfs            0                       # Number of software prefetches ignored due to an invalid address
system.switch_cpus_1.iew.lsq.thread0.blockedLoads            0                       # Number of blocked loads due to partial load-store forwarding
system.switch_cpus_1.iew.lsq.thread0.rescheduledLoads           49                       # Number of loads that were rescheduled
system.switch_cpus_1.iew.lsq.thread0.cacheBlocked       164632                       # Number of times an access to memory failed due to the cache being blocked
system.switch_cpus_1.iew.iewIdleCycles              0                       # Number of cycles IEW is idle
system.switch_cpus_1.iew.iewSquashCycles      2079814                       # Number of cycles IEW is squashing
system.switch_cpus_1.iew.iewBlockCycles      15028811                       # Number of cycles IEW is blocking
system.switch_cpus_1.iew.iewUnblockCycles      9388631                       # Number of cycles IEW is unblocking
system.switch_cpus_1.iew.iewDispatchedInsts    281021654                       # Number of instructions dispatched to IQ
system.switch_cpus_1.iew.iewDispSquashedInsts       650297                       # Number of squashed instructions skipped by dispatch
system.switch_cpus_1.iew.iewDispLoadInsts     89923611                       # Number of dispatched load instructions
system.switch_cpus_1.iew.iewDispStoreInsts     38811012                       # Number of dispatched store instructions
system.switch_cpus_1.iew.iewDispNonSpecInsts        84648                       # Number of dispatched non-speculative instructions
system.switch_cpus_1.iew.iewIQFullEvents       336368                       # Number of times the IQ has become full, causing a stall
system.switch_cpus_1.iew.iewLSQFullEvents      9079432                       # Number of times the LSQ has become full, causing a stall
system.switch_cpus_1.iew.memOrderViolationEvents        81951                       # Number of memory order violations
system.switch_cpus_1.iew.predictedTakenIncorrect       939050                       # Number of branches that were predicted taken incorrectly
system.switch_cpus_1.iew.predictedNotTakenIncorrect       733844                       # Number of branches that were predicted not taken incorrectly
system.switch_cpus_1.iew.branchMispredicts      1672894                       # Number of branch mispredicts detected at execute
system.switch_cpus_1.iew.iewExecutedInsts    239285924                       # Number of executed instructions
system.switch_cpus_1.iew.iewExecLoadInsts     78345751                       # Number of load instructions executed
system.switch_cpus_1.iew.iewExecSquashedInsts      2945085                       # Number of squashed instructions skipped in execute
system.switch_cpus_1.iew.exec_swp                   0                       # number of swp insts executed
system.switch_cpus_1.iew.exec_nop             6947769                       # number of nop insts executed
system.switch_cpus_1.iew.exec_refs          112521582                       # number of memory reference insts executed
system.switch_cpus_1.iew.exec_branches       39856305                       # Number of branches executed
system.switch_cpus_1.iew.exec_stores         34175831                       # Number of stores executed
system.switch_cpus_1.iew.exec_rate           1.280209                       # Inst execution rate
system.switch_cpus_1.iew.wb_sent            237830189                       # cumulative count of insts sent to commit
system.switch_cpus_1.iew.wb_count           235904160                       # cumulative count of insts written-back
system.switch_cpus_1.iew.wb_producers       131582497                       # num instructions producing a value
system.switch_cpus_1.iew.wb_consumers       175182275                       # num instructions consuming a value
system.switch_cpus_1.iew.wb_rate             1.262117                       # insts written-back per cycle
system.switch_cpus_1.iew.wb_fanout           0.751118                       # average fanout of values written-back
system.switch_cpus_1.commit.commitSquashedInsts     68031878                       # The number of squashed insts skipped by commit
system.switch_cpus_1.commit.commitNonSpecStalls       131982                       # The number of times commit has been forced to stall to communicate backwards
system.switch_cpus_1.commit.branchMispredicts      1459862                       # The number of times a branch was mispredicted
system.switch_cpus_1.commit.committed_per_cycle::samples    168143300                       # Number of insts commited each cycle
system.switch_cpus_1.commit.committed_per_cycle::mean     1.217831                       # Number of insts commited each cycle
system.switch_cpus_1.commit.committed_per_cycle::stdev     2.287713                       # Number of insts commited each cycle
system.switch_cpus_1.commit.committed_per_cycle::underflows            0      0.00%      0.00% # Number of insts commited each cycle
system.switch_cpus_1.commit.committed_per_cycle::0    106736630     63.48%     63.48% # Number of insts commited each cycle
system.switch_cpus_1.commit.committed_per_cycle::1     25496754     15.16%     78.64% # Number of insts commited each cycle
system.switch_cpus_1.commit.committed_per_cycle::2      9034449      5.37%     84.02% # Number of insts commited each cycle
system.switch_cpus_1.commit.committed_per_cycle::3      4124263      2.45%     86.47% # Number of insts commited each cycle
system.switch_cpus_1.commit.committed_per_cycle::4      3893773      2.32%     88.78% # Number of insts commited each cycle
system.switch_cpus_1.commit.committed_per_cycle::5      3308672      1.97%     90.75% # Number of insts commited each cycle
system.switch_cpus_1.commit.committed_per_cycle::6      2819115      1.68%     92.43% # Number of insts commited each cycle
system.switch_cpus_1.commit.committed_per_cycle::7      2038690      1.21%     93.64% # Number of insts commited each cycle
system.switch_cpus_1.commit.committed_per_cycle::8     10690954      6.36%    100.00% # Number of insts commited each cycle
system.switch_cpus_1.commit.committed_per_cycle::overflows            0      0.00%    100.00% # Number of insts commited each cycle
system.switch_cpus_1.commit.committed_per_cycle::min_value            0                       # Number of insts commited each cycle
system.switch_cpus_1.commit.committed_per_cycle::max_value            8                       # Number of insts commited each cycle
system.switch_cpus_1.commit.committed_per_cycle::total    168143300                       # Number of insts commited each cycle
system.switch_cpus_1.commit.committedInsts    204770045                       # Number of instructions committed
system.switch_cpus_1.commit.committedOps    204770045                       # Number of ops (including micro ops) committed
system.switch_cpus_1.commit.swp_count               0                       # Number of s/w prefetches committed
system.switch_cpus_1.commit.refs             93279484                       # Number of memory references committed
system.switch_cpus_1.commit.loads            65107527                       # Number of loads committed
system.switch_cpus_1.commit.membars             65988                       # Number of memory barriers committed
system.switch_cpus_1.commit.branches         33714070                       # Number of branches committed
system.switch_cpus_1.commit.fp_insts           159557                       # Number of committed floating point instructions.
system.switch_cpus_1.commit.int_insts       196778837                       # Number of committed integer instructions.
system.switch_cpus_1.commit.function_calls      2336737                       # Number of function calls committed.
system.switch_cpus_1.commit.op_class_0::No_OpClass      4770592      2.33%      2.33% # Class of committed instruction
system.switch_cpus_1.commit.op_class_0::IntAlu    106615487     52.07%     54.40% # Class of committed instruction
system.switch_cpus_1.commit.op_class_0::IntMult         2354      0.00%     54.40% # Class of committed instruction
system.switch_cpus_1.commit.op_class_0::IntDiv            0      0.00%     54.40% # Class of committed instruction
system.switch_cpus_1.commit.op_class_0::FloatAdd        29677      0.01%     54.41% # Class of committed instruction
system.switch_cpus_1.commit.op_class_0::FloatCmp         2802      0.00%     54.41% # Class of committed instruction
system.switch_cpus_1.commit.op_class_0::FloatCvt         2757      0.00%     54.41% # Class of committed instruction
system.switch_cpus_1.commit.op_class_0::FloatMult          480      0.00%     54.41% # Class of committed instruction
system.switch_cpus_1.commit.op_class_0::FloatMultAcc            0      0.00%     54.41% # Class of committed instruction
system.switch_cpus_1.commit.op_class_0::FloatDiv          424      0.00%     54.41% # Class of committed instruction
system.switch_cpus_1.commit.op_class_0::FloatMisc            0      0.00%     54.41% # Class of committed instruction
system.switch_cpus_1.commit.op_class_0::FloatSqrt            0      0.00%     54.41% # Class of committed instruction
system.switch_cpus_1.commit.op_class_0::SimdAdd            0      0.00%     54.41% # Class of committed instruction
system.switch_cpus_1.commit.op_class_0::SimdAddAcc            0      0.00%     54.41% # Class of committed instruction
system.switch_cpus_1.commit.op_class_0::SimdAlu            0      0.00%     54.41% # Class of committed instruction
system.switch_cpus_1.commit.op_class_0::SimdCmp            0      0.00%     54.41% # Class of committed instruction
system.switch_cpus_1.commit.op_class_0::SimdCvt            0      0.00%     54.41% # Class of committed instruction
system.switch_cpus_1.commit.op_class_0::SimdMisc            0      0.00%     54.41% # Class of committed instruction
system.switch_cpus_1.commit.op_class_0::SimdMult            0      0.00%     54.41% # Class of committed instruction
system.switch_cpus_1.commit.op_class_0::SimdMultAcc            0      0.00%     54.41% # Class of committed instruction
system.switch_cpus_1.commit.op_class_0::SimdShift            0      0.00%     54.41% # Class of committed instruction
system.switch_cpus_1.commit.op_class_0::SimdShiftAcc            0      0.00%     54.41% # Class of committed instruction
system.switch_cpus_1.commit.op_class_0::SimdSqrt            0      0.00%     54.41% # Class of committed instruction
system.switch_cpus_1.commit.op_class_0::SimdFloatAdd            0      0.00%     54.41% # Class of committed instruction
system.switch_cpus_1.commit.op_class_0::SimdFloatAlu            0      0.00%     54.41% # Class of committed instruction
system.switch_cpus_1.commit.op_class_0::SimdFloatCmp            0      0.00%     54.41% # Class of committed instruction
system.switch_cpus_1.commit.op_class_0::SimdFloatCvt            0      0.00%     54.41% # Class of committed instruction
system.switch_cpus_1.commit.op_class_0::SimdFloatDiv            0      0.00%     54.41% # Class of committed instruction
system.switch_cpus_1.commit.op_class_0::SimdFloatMisc            0      0.00%     54.41% # Class of committed instruction
system.switch_cpus_1.commit.op_class_0::SimdFloatMult            0      0.00%     54.41% # Class of committed instruction
system.switch_cpus_1.commit.op_class_0::SimdFloatMultAcc            0      0.00%     54.41% # Class of committed instruction
system.switch_cpus_1.commit.op_class_0::SimdFloatSqrt            0      0.00%     54.41% # Class of committed instruction
system.switch_cpus_1.commit.op_class_0::MemRead     65122112     31.80%     86.22% # Class of committed instruction
system.switch_cpus_1.commit.op_class_0::MemWrite     28099943     13.72%     99.94% # Class of committed instruction
system.switch_cpus_1.commit.op_class_0::FloatMemRead        51403      0.03%     99.96% # Class of committed instruction
system.switch_cpus_1.commit.op_class_0::FloatMemWrite        72014      0.04%    100.00% # Class of committed instruction
system.switch_cpus_1.commit.op_class_0::IprAccess            0      0.00%    100.00% # Class of committed instruction
system.switch_cpus_1.commit.op_class_0::InstPrefetch            0      0.00%    100.00% # Class of committed instruction
system.switch_cpus_1.commit.op_class_0::total    204770045                       # Class of committed instruction
system.switch_cpus_1.commit.bw_lim_events     10690954                       # number cycles where commit BW limit reached
system.switch_cpus_1.rob.rob_reads          423028440                       # The number of ROB reads
system.switch_cpus_1.rob.rob_writes         555579542                       # The number of ROB writes
system.switch_cpus_1.timesIdled               1134353                       # Number of times that the entire CPU went into an idle state and unscheduled itself
system.switch_cpus_1.idleCycles               8815990                       # Total number of cycles that the CPU has spent unscheduled due to idling
system.switch_cpus_1.committedInsts         200000002                       # Number of Instructions Simulated
system.switch_cpus_1.committedOps           200000002                       # Number of Ops (including micro ops) Simulated
system.switch_cpus_1.cpi                     0.934558                       # CPI: Cycles Per Instruction
system.switch_cpus_1.cpi_total               0.934558                       # CPI: Total CPI of All Threads
system.switch_cpus_1.ipc                     1.070025                       # IPC: Instructions Per Cycle
system.switch_cpus_1.ipc_total               1.070025                       # IPC: Total IPC of All Threads
system.switch_cpus_1.int_regfile_reads      304328442                       # number of integer regfile reads
system.switch_cpus_1.int_regfile_writes     165742691                       # number of integer regfile writes
system.switch_cpus_1.fp_regfile_reads          178789                       # number of floating regfile reads
system.switch_cpus_1.fp_regfile_writes         106056                       # number of floating regfile writes
system.switch_cpus_1.misc_regfile_reads        151468                       # number of misc regfile reads
system.switch_cpus_1.misc_regfile_writes       132243                       # number of misc regfile writes
system.tol3bus.snoop_filter.tot_requests      1295241                       # Total number of requests made to the snoop filter.
system.tol3bus.snoop_filter.hit_single_requests       645589                       # Number of requests hitting in the snoop filter with a single holder of the requested data.
system.tol3bus.snoop_filter.hit_multi_requests            0                       # Number of requests hitting in the snoop filter with multiple (>1) holders of the requested data.
system.tol3bus.snoop_filter.tot_snoops            649                       # Total number of snoops made to the snoop filter.
system.tol3bus.snoop_filter.hit_single_snoops          649                       # Number of snoops hitting in the snoop filter with a single holder of the requested data.
system.tol3bus.snoop_filter.hit_multi_snoops            0                       # Number of snoops hitting in the snoop filter with multiple (>1) holders of the requested data.
system.tol3bus.pwrStateResidencyTicks::UNDEFINED 31073263763868                       # Cumulative time (in ticks) in various power states
system.tol3bus.trans_dist::ReadResp            578612                       # Transaction distribution
system.tol3bus.trans_dist::WritebackDirty       197377                       # Transaction distribution
system.tol3bus.trans_dist::CleanEvict          552083                       # Transaction distribution
system.tol3bus.trans_dist::UpgradeReq               1                       # Transaction distribution
system.tol3bus.trans_dist::UpgradeResp              1                       # Transaction distribution
system.tol3bus.trans_dist::ReadExReq            71040                       # Transaction distribution
system.tol3bus.trans_dist::ReadExResp           71040                       # Transaction distribution
system.tol3bus.trans_dist::ReadSharedReq       578612                       # Transaction distribution
system.tol3bus.pkt_count_system.cpu.l2.mem_side::system.l3.cpu_side      1944894                       # Packet count per connected master and slave (bytes)
system.tol3bus.pkt_size_system.cpu.l2.mem_side::system.l3.cpu_side     52771200                       # Cumulative packet size per connected master and slave (bytes)
system.tol3bus.snoops                          103872                       # Total snoops (count)
system.tol3bus.snoopTraffic                   1438656                       # Total snoop traffic (bytes)
system.tol3bus.snoop_fanout::samples           753525                       # Request fanout histogram
system.tol3bus.snoop_fanout::mean            0.000861                       # Request fanout histogram
system.tol3bus.snoop_fanout::stdev           0.029335                       # Request fanout histogram
system.tol3bus.snoop_fanout::underflows             0      0.00%      0.00% # Request fanout histogram
system.tol3bus.snoop_fanout::0                 752876     99.91%     99.91% # Request fanout histogram
system.tol3bus.snoop_fanout::1                    649      0.09%    100.00% # Request fanout histogram
system.tol3bus.snoop_fanout::overflows              0      0.00%    100.00% # Request fanout histogram
system.tol3bus.snoop_fanout::min_value              0                       # Request fanout histogram
system.tol3bus.snoop_fanout::max_value              1                       # Request fanout histogram
system.tol3bus.snoop_fanout::total             753525                       # Request fanout histogram
system.tol3bus.reqLayer0.occupancy          489556287                       # Layer occupancy (ticks)
system.tol3bus.reqLayer0.utilization              0.0                       # Layer utilization (%)
system.tol3bus.respLayer0.occupancy         432668565                       # Layer occupancy (ticks)
system.tol3bus.respLayer0.utilization             0.0                       # Layer utilization (%)

---------- End Simulation Statistics   ----------
