
---------- Begin Simulation Statistics ----------
sim_seconds                                  2.442976                       # Number of seconds simulated
sim_ticks                                2442975823089                       # Number of ticks simulated
final_tick                               72472948404435                       # Number of ticks from beginning of simulation (restored from checkpoints and never reset)
sim_freq                                 1000000000000                       # Frequency of simulated ticks
host_inst_rate                                 222298                       # Simulator instruction rate (inst/s)
host_op_rate                                   222298                       # Simulator op (including micro ops) rate (op/s)
host_tick_rate                              452556528                       # Simulator tick rate (ticks/s)
host_mem_usage                                2503468                       # Number of bytes of host memory used
host_seconds                                  5398.17                       # Real time elapsed on the host
sim_insts                                  1200000011                       # Number of instructions simulated
sim_ops                                    1200000011                       # Number of ops (including micro ops) simulated
system.voltage_domain.voltage                       1                       # Voltage in Volts
system.clk_domain.clock                          1000                       # Clock period in ticks
system.mem_ctrls0.pwrStateResidencyTicks::UNDEFINED 72472948404435                       # Cumulative time (in ticks) in various power states
system.mem_ctrls0.bytes_read::cpu.inst             64                       # Number of bytes read from this memory
system.mem_ctrls0.bytes_read::cpu.data            128                       # Number of bytes read from this memory
system.mem_ctrls0.bytes_read::switch_cpus.inst       127808                       # Number of bytes read from this memory
system.mem_ctrls0.bytes_read::switch_cpus.data    391562496                       # Number of bytes read from this memory
system.mem_ctrls0.bytes_read::switch_cpus_1.inst        35648                       # Number of bytes read from this memory
system.mem_ctrls0.bytes_read::switch_cpus_1.data     82595648                       # Number of bytes read from this memory
system.mem_ctrls0.bytes_read::total         474321792                       # Number of bytes read from this memory
system.mem_ctrls0.bytes_inst_read::cpu.inst           64                       # Number of instructions bytes read from this memory
system.mem_ctrls0.bytes_inst_read::switch_cpus.inst       127808                       # Number of instructions bytes read from this memory
system.mem_ctrls0.bytes_inst_read::switch_cpus_1.inst        35648                       # Number of instructions bytes read from this memory
system.mem_ctrls0.bytes_inst_read::total       163520                       # Number of instructions bytes read from this memory
system.mem_ctrls0.bytes_written::writebacks    164612608                       # Number of bytes written to this memory
system.mem_ctrls0.bytes_written::total      164612608                       # Number of bytes written to this memory
system.mem_ctrls0.num_reads::cpu.inst               1                       # Number of read requests responded to by this memory
system.mem_ctrls0.num_reads::cpu.data               2                       # Number of read requests responded to by this memory
system.mem_ctrls0.num_reads::switch_cpus.inst         1997                       # Number of read requests responded to by this memory
system.mem_ctrls0.num_reads::switch_cpus.data      6118164                       # Number of read requests responded to by this memory
system.mem_ctrls0.num_reads::switch_cpus_1.inst          557                       # Number of read requests responded to by this memory
system.mem_ctrls0.num_reads::switch_cpus_1.data      1290557                       # Number of read requests responded to by this memory
system.mem_ctrls0.num_reads::total            7411278                       # Number of read requests responded to by this memory
system.mem_ctrls0.num_writes::writebacks      2572072                       # Number of write requests responded to by this memory
system.mem_ctrls0.num_writes::total           2572072                       # Number of write requests responded to by this memory
system.mem_ctrls0.bw_read::cpu.inst                26                       # Total read bandwidth from this memory (bytes/s)
system.mem_ctrls0.bw_read::cpu.data                52                       # Total read bandwidth from this memory (bytes/s)
system.mem_ctrls0.bw_read::switch_cpus.inst        52317                       # Total read bandwidth from this memory (bytes/s)
system.mem_ctrls0.bw_read::switch_cpus.data    160280954                       # Total read bandwidth from this memory (bytes/s)
system.mem_ctrls0.bw_read::switch_cpus_1.inst        14592                       # Total read bandwidth from this memory (bytes/s)
system.mem_ctrls0.bw_read::switch_cpus_1.data     33809441                       # Total read bandwidth from this memory (bytes/s)
system.mem_ctrls0.bw_read::total            194157383                       # Total read bandwidth from this memory (bytes/s)
system.mem_ctrls0.bw_inst_read::cpu.inst           26                       # Instruction read bandwidth from this memory (bytes/s)
system.mem_ctrls0.bw_inst_read::switch_cpus.inst        52317                       # Instruction read bandwidth from this memory (bytes/s)
system.mem_ctrls0.bw_inst_read::switch_cpus_1.inst        14592                       # Instruction read bandwidth from this memory (bytes/s)
system.mem_ctrls0.bw_inst_read::total           66935                       # Instruction read bandwidth from this memory (bytes/s)
system.mem_ctrls0.bw_write::writebacks       67382005                       # Write bandwidth from this memory (bytes/s)
system.mem_ctrls0.bw_write::total            67382005                       # Write bandwidth from this memory (bytes/s)
system.mem_ctrls0.bw_total::writebacks       67382005                       # Total bandwidth to/from this memory (bytes/s)
system.mem_ctrls0.bw_total::cpu.inst               26                       # Total bandwidth to/from this memory (bytes/s)
system.mem_ctrls0.bw_total::cpu.data               52                       # Total bandwidth to/from this memory (bytes/s)
system.mem_ctrls0.bw_total::switch_cpus.inst        52317                       # Total bandwidth to/from this memory (bytes/s)
system.mem_ctrls0.bw_total::switch_cpus.data    160280954                       # Total bandwidth to/from this memory (bytes/s)
system.mem_ctrls0.bw_total::switch_cpus_1.inst        14592                       # Total bandwidth to/from this memory (bytes/s)
system.mem_ctrls0.bw_total::switch_cpus_1.data     33809441                       # Total bandwidth to/from this memory (bytes/s)
system.mem_ctrls0.bw_total::total           261539387                       # Total bandwidth to/from this memory (bytes/s)
system.mem_ctrls0.readReqs                    7411278                       # Number of read requests accepted
system.mem_ctrls0.writeReqs                   2572072                       # Number of write requests accepted
system.mem_ctrls0.readBursts                  7411278                       # Number of DRAM read bursts, including those serviced by the write queue
system.mem_ctrls0.writeBursts                 2572072                       # Number of DRAM write bursts, including those merged in the write queue
system.mem_ctrls0.bytesReadDRAM             473917376                       # Total number of bytes read from DRAM
system.mem_ctrls0.bytesReadWrQ                 404416                       # Total number of bytes read from write queue
system.mem_ctrls0.bytesWritten              164611200                       # Total number of bytes written to DRAM
system.mem_ctrls0.bytesReadSys              474321792                       # Total read bytes from the system interface side
system.mem_ctrls0.bytesWrittenSys           164612608                       # Total written bytes from the system interface side
system.mem_ctrls0.servicedByWrQ                  6319                       # Number of DRAM read bursts serviced by the write queue
system.mem_ctrls0.mergedWrBursts                    1                       # Number of DRAM write bursts merged with an existing one
system.mem_ctrls0.neitherReadNorWriteReqs            0                       # Number of requests that are neither read nor write
system.mem_ctrls0.perBankRdBursts::0           485338                       # Per bank write bursts
system.mem_ctrls0.perBankRdBursts::1           468586                       # Per bank write bursts
system.mem_ctrls0.perBankRdBursts::2           465396                       # Per bank write bursts
system.mem_ctrls0.perBankRdBursts::3           465132                       # Per bank write bursts
system.mem_ctrls0.perBankRdBursts::4           465031                       # Per bank write bursts
system.mem_ctrls0.perBankRdBursts::5           476150                       # Per bank write bursts
system.mem_ctrls0.perBankRdBursts::6           452757                       # Per bank write bursts
system.mem_ctrls0.perBankRdBursts::7           465677                       # Per bank write bursts
system.mem_ctrls0.perBankRdBursts::8           468821                       # Per bank write bursts
system.mem_ctrls0.perBankRdBursts::9           460916                       # Per bank write bursts
system.mem_ctrls0.perBankRdBursts::10          454243                       # Per bank write bursts
system.mem_ctrls0.perBankRdBursts::11          460553                       # Per bank write bursts
system.mem_ctrls0.perBankRdBursts::12          451232                       # Per bank write bursts
system.mem_ctrls0.perBankRdBursts::13          446878                       # Per bank write bursts
system.mem_ctrls0.perBankRdBursts::14          453480                       # Per bank write bursts
system.mem_ctrls0.perBankRdBursts::15          464769                       # Per bank write bursts
system.mem_ctrls0.perBankWrBursts::0           169560                       # Per bank write bursts
system.mem_ctrls0.perBankWrBursts::1           159002                       # Per bank write bursts
system.mem_ctrls0.perBankWrBursts::2           164704                       # Per bank write bursts
system.mem_ctrls0.perBankWrBursts::3           162595                       # Per bank write bursts
system.mem_ctrls0.perBankWrBursts::4           161441                       # Per bank write bursts
system.mem_ctrls0.perBankWrBursts::5           162700                       # Per bank write bursts
system.mem_ctrls0.perBankWrBursts::6           156951                       # Per bank write bursts
system.mem_ctrls0.perBankWrBursts::7           158090                       # Per bank write bursts
system.mem_ctrls0.perBankWrBursts::8           157656                       # Per bank write bursts
system.mem_ctrls0.perBankWrBursts::9           155049                       # Per bank write bursts
system.mem_ctrls0.perBankWrBursts::10          155793                       # Per bank write bursts
system.mem_ctrls0.perBankWrBursts::11          155577                       # Per bank write bursts
system.mem_ctrls0.perBankWrBursts::12          153398                       # Per bank write bursts
system.mem_ctrls0.perBankWrBursts::13          160546                       # Per bank write bursts
system.mem_ctrls0.perBankWrBursts::14          168061                       # Per bank write bursts
system.mem_ctrls0.perBankWrBursts::15          170927                       # Per bank write bursts
system.mem_ctrls0.numRdRetry                        0                       # Number of times read queue was full causing retry
system.mem_ctrls0.numWrRetry                        0                       # Number of times write queue was full causing retry
system.mem_ctrls0.totGap                 2442975697548                       # Total gap between requests
system.mem_ctrls0.readPktSize::0                    0                       # Read request sizes (log2)
system.mem_ctrls0.readPktSize::1                    0                       # Read request sizes (log2)
system.mem_ctrls0.readPktSize::2                    0                       # Read request sizes (log2)
system.mem_ctrls0.readPktSize::3                    0                       # Read request sizes (log2)
system.mem_ctrls0.readPktSize::4                    0                       # Read request sizes (log2)
system.mem_ctrls0.readPktSize::5                    0                       # Read request sizes (log2)
system.mem_ctrls0.readPktSize::6              7411278                       # Read request sizes (log2)
system.mem_ctrls0.writePktSize::0                   0                       # Write request sizes (log2)
system.mem_ctrls0.writePktSize::1                   0                       # Write request sizes (log2)
system.mem_ctrls0.writePktSize::2                   0                       # Write request sizes (log2)
system.mem_ctrls0.writePktSize::3                   0                       # Write request sizes (log2)
system.mem_ctrls0.writePktSize::4                   0                       # Write request sizes (log2)
system.mem_ctrls0.writePktSize::5                   0                       # Write request sizes (log2)
system.mem_ctrls0.writePktSize::6             2572072                       # Write request sizes (log2)
system.mem_ctrls0.rdQLenPdf::0                7014338                       # What read queue length does an incoming req see
system.mem_ctrls0.rdQLenPdf::1                 331740                       # What read queue length does an incoming req see
system.mem_ctrls0.rdQLenPdf::2                  53431                       # What read queue length does an incoming req see
system.mem_ctrls0.rdQLenPdf::3                   5450                       # What read queue length does an incoming req see
system.mem_ctrls0.rdQLenPdf::4                      0                       # What read queue length does an incoming req see
system.mem_ctrls0.rdQLenPdf::5                      0                       # What read queue length does an incoming req see
system.mem_ctrls0.rdQLenPdf::6                      0                       # What read queue length does an incoming req see
system.mem_ctrls0.rdQLenPdf::7                      0                       # What read queue length does an incoming req see
system.mem_ctrls0.rdQLenPdf::8                      0                       # What read queue length does an incoming req see
system.mem_ctrls0.rdQLenPdf::9                      0                       # What read queue length does an incoming req see
system.mem_ctrls0.rdQLenPdf::10                     0                       # What read queue length does an incoming req see
system.mem_ctrls0.rdQLenPdf::11                     0                       # What read queue length does an incoming req see
system.mem_ctrls0.rdQLenPdf::12                     0                       # What read queue length does an incoming req see
system.mem_ctrls0.rdQLenPdf::13                     0                       # What read queue length does an incoming req see
system.mem_ctrls0.rdQLenPdf::14                     0                       # What read queue length does an incoming req see
system.mem_ctrls0.rdQLenPdf::15                     0                       # What read queue length does an incoming req see
system.mem_ctrls0.rdQLenPdf::16                     0                       # What read queue length does an incoming req see
system.mem_ctrls0.rdQLenPdf::17                     0                       # What read queue length does an incoming req see
system.mem_ctrls0.rdQLenPdf::18                     0                       # What read queue length does an incoming req see
system.mem_ctrls0.rdQLenPdf::19                     0                       # What read queue length does an incoming req see
system.mem_ctrls0.rdQLenPdf::20                     0                       # What read queue length does an incoming req see
system.mem_ctrls0.rdQLenPdf::21                     0                       # What read queue length does an incoming req see
system.mem_ctrls0.rdQLenPdf::22                     0                       # What read queue length does an incoming req see
system.mem_ctrls0.rdQLenPdf::23                     0                       # What read queue length does an incoming req see
system.mem_ctrls0.rdQLenPdf::24                     0                       # What read queue length does an incoming req see
system.mem_ctrls0.rdQLenPdf::25                     0                       # What read queue length does an incoming req see
system.mem_ctrls0.rdQLenPdf::26                     0                       # What read queue length does an incoming req see
system.mem_ctrls0.rdQLenPdf::27                     0                       # What read queue length does an incoming req see
system.mem_ctrls0.rdQLenPdf::28                     0                       # What read queue length does an incoming req see
system.mem_ctrls0.rdQLenPdf::29                     0                       # What read queue length does an incoming req see
system.mem_ctrls0.rdQLenPdf::30                     0                       # What read queue length does an incoming req see
system.mem_ctrls0.rdQLenPdf::31                     0                       # What read queue length does an incoming req see
system.mem_ctrls0.wrQLenPdf::0                      2                       # What write queue length does an incoming req see
system.mem_ctrls0.wrQLenPdf::1                      2                       # What write queue length does an incoming req see
system.mem_ctrls0.wrQLenPdf::2                      2                       # What write queue length does an incoming req see
system.mem_ctrls0.wrQLenPdf::3                      2                       # What write queue length does an incoming req see
system.mem_ctrls0.wrQLenPdf::4                      2                       # What write queue length does an incoming req see
system.mem_ctrls0.wrQLenPdf::5                      2                       # What write queue length does an incoming req see
system.mem_ctrls0.wrQLenPdf::6                      2                       # What write queue length does an incoming req see
system.mem_ctrls0.wrQLenPdf::7                      2                       # What write queue length does an incoming req see
system.mem_ctrls0.wrQLenPdf::8                      2                       # What write queue length does an incoming req see
system.mem_ctrls0.wrQLenPdf::9                      2                       # What write queue length does an incoming req see
system.mem_ctrls0.wrQLenPdf::10                     2                       # What write queue length does an incoming req see
system.mem_ctrls0.wrQLenPdf::11                     2                       # What write queue length does an incoming req see
system.mem_ctrls0.wrQLenPdf::12                     2                       # What write queue length does an incoming req see
system.mem_ctrls0.wrQLenPdf::13                     2                       # What write queue length does an incoming req see
system.mem_ctrls0.wrQLenPdf::14                     2                       # What write queue length does an incoming req see
system.mem_ctrls0.wrQLenPdf::15                 85673                       # What write queue length does an incoming req see
system.mem_ctrls0.wrQLenPdf::16                 90107                       # What write queue length does an incoming req see
system.mem_ctrls0.wrQLenPdf::17                142811                       # What write queue length does an incoming req see
system.mem_ctrls0.wrQLenPdf::18                148898                       # What write queue length does an incoming req see
system.mem_ctrls0.wrQLenPdf::19                150091                       # What write queue length does an incoming req see
system.mem_ctrls0.wrQLenPdf::20                150240                       # What write queue length does an incoming req see
system.mem_ctrls0.wrQLenPdf::21                150214                       # What write queue length does an incoming req see
system.mem_ctrls0.wrQLenPdf::22                150084                       # What write queue length does an incoming req see
system.mem_ctrls0.wrQLenPdf::23                150020                       # What write queue length does an incoming req see
system.mem_ctrls0.wrQLenPdf::24                150061                       # What write queue length does an incoming req see
system.mem_ctrls0.wrQLenPdf::25                150060                       # What write queue length does an incoming req see
system.mem_ctrls0.wrQLenPdf::26                150102                       # What write queue length does an incoming req see
system.mem_ctrls0.wrQLenPdf::27                150670                       # What write queue length does an incoming req see
system.mem_ctrls0.wrQLenPdf::28                151065                       # What write queue length does an incoming req see
system.mem_ctrls0.wrQLenPdf::29                152004                       # What write queue length does an incoming req see
system.mem_ctrls0.wrQLenPdf::30                151139                       # What write queue length does an incoming req see
system.mem_ctrls0.wrQLenPdf::31                149389                       # What write queue length does an incoming req see
system.mem_ctrls0.wrQLenPdf::32                149211                       # What write queue length does an incoming req see
system.mem_ctrls0.wrQLenPdf::33                   128                       # What write queue length does an incoming req see
system.mem_ctrls0.wrQLenPdf::34                    44                       # What write queue length does an incoming req see
system.mem_ctrls0.wrQLenPdf::35                    17                       # What write queue length does an incoming req see
system.mem_ctrls0.wrQLenPdf::36                     5                       # What write queue length does an incoming req see
system.mem_ctrls0.wrQLenPdf::37                     3                       # What write queue length does an incoming req see
system.mem_ctrls0.wrQLenPdf::38                     2                       # What write queue length does an incoming req see
system.mem_ctrls0.wrQLenPdf::39                     2                       # What write queue length does an incoming req see
system.mem_ctrls0.wrQLenPdf::40                     1                       # What write queue length does an incoming req see
system.mem_ctrls0.wrQLenPdf::41                     0                       # What write queue length does an incoming req see
system.mem_ctrls0.wrQLenPdf::42                     0                       # What write queue length does an incoming req see
system.mem_ctrls0.wrQLenPdf::43                     0                       # What write queue length does an incoming req see
system.mem_ctrls0.wrQLenPdf::44                     0                       # What write queue length does an incoming req see
system.mem_ctrls0.wrQLenPdf::45                     0                       # What write queue length does an incoming req see
system.mem_ctrls0.wrQLenPdf::46                     0                       # What write queue length does an incoming req see
system.mem_ctrls0.wrQLenPdf::47                     0                       # What write queue length does an incoming req see
system.mem_ctrls0.wrQLenPdf::48                     0                       # What write queue length does an incoming req see
system.mem_ctrls0.wrQLenPdf::49                     0                       # What write queue length does an incoming req see
system.mem_ctrls0.wrQLenPdf::50                     0                       # What write queue length does an incoming req see
system.mem_ctrls0.wrQLenPdf::51                     0                       # What write queue length does an incoming req see
system.mem_ctrls0.wrQLenPdf::52                     0                       # What write queue length does an incoming req see
system.mem_ctrls0.wrQLenPdf::53                     0                       # What write queue length does an incoming req see
system.mem_ctrls0.wrQLenPdf::54                     0                       # What write queue length does an incoming req see
system.mem_ctrls0.wrQLenPdf::55                     0                       # What write queue length does an incoming req see
system.mem_ctrls0.wrQLenPdf::56                     0                       # What write queue length does an incoming req see
system.mem_ctrls0.wrQLenPdf::57                     0                       # What write queue length does an incoming req see
system.mem_ctrls0.wrQLenPdf::58                     0                       # What write queue length does an incoming req see
system.mem_ctrls0.wrQLenPdf::59                     0                       # What write queue length does an incoming req see
system.mem_ctrls0.wrQLenPdf::60                     0                       # What write queue length does an incoming req see
system.mem_ctrls0.wrQLenPdf::61                     0                       # What write queue length does an incoming req see
system.mem_ctrls0.wrQLenPdf::62                     0                       # What write queue length does an incoming req see
system.mem_ctrls0.wrQLenPdf::63                     0                       # What write queue length does an incoming req see
system.mem_ctrls0.bytesPerActivate::samples      4469986                       # Bytes accessed per row activation
system.mem_ctrls0.bytesPerActivate::mean   142.847918                       # Bytes accessed per row activation
system.mem_ctrls0.bytesPerActivate::gmean    98.506830                       # Bytes accessed per row activation
system.mem_ctrls0.bytesPerActivate::stdev   186.127691                       # Bytes accessed per row activation
system.mem_ctrls0.bytesPerActivate::0-127      2931745     65.59%     65.59% # Bytes accessed per row activation
system.mem_ctrls0.bytesPerActivate::128-255       949495     21.24%     86.83% # Bytes accessed per row activation
system.mem_ctrls0.bytesPerActivate::256-383       227356      5.09%     91.92% # Bytes accessed per row activation
system.mem_ctrls0.bytesPerActivate::384-511       109846      2.46%     94.37% # Bytes accessed per row activation
system.mem_ctrls0.bytesPerActivate::512-639        57837      1.29%     95.67% # Bytes accessed per row activation
system.mem_ctrls0.bytesPerActivate::640-767        38486      0.86%     96.53% # Bytes accessed per row activation
system.mem_ctrls0.bytesPerActivate::768-895        32577      0.73%     97.26% # Bytes accessed per row activation
system.mem_ctrls0.bytesPerActivate::896-1023        32513      0.73%     97.98% # Bytes accessed per row activation
system.mem_ctrls0.bytesPerActivate::1024-1151        90131      2.02%    100.00% # Bytes accessed per row activation
system.mem_ctrls0.bytesPerActivate::total      4469986                       # Bytes accessed per row activation
system.mem_ctrls0.rdPerTurnAround::samples       149134                       # Reads before turning the bus around for writes
system.mem_ctrls0.rdPerTurnAround::mean     49.652990                       # Reads before turning the bus around for writes
system.mem_ctrls0.rdPerTurnAround::stdev   109.063854                       # Reads before turning the bus around for writes
system.mem_ctrls0.rdPerTurnAround::0-1023       148957     99.88%     99.88% # Reads before turning the bus around for writes
system.mem_ctrls0.rdPerTurnAround::1024-2047          149      0.10%     99.98% # Reads before turning the bus around for writes
system.mem_ctrls0.rdPerTurnAround::2048-3071           24      0.02%    100.00% # Reads before turning the bus around for writes
system.mem_ctrls0.rdPerTurnAround::3072-4095            3      0.00%    100.00% # Reads before turning the bus around for writes
system.mem_ctrls0.rdPerTurnAround::29696-30719            1      0.00%    100.00% # Reads before turning the bus around for writes
system.mem_ctrls0.rdPerTurnAround::total       149134                       # Reads before turning the bus around for writes
system.mem_ctrls0.wrPerTurnAround::samples       149134                       # Writes before turning the bus around for reads
system.mem_ctrls0.wrPerTurnAround::mean     17.246570                       # Writes before turning the bus around for reads
system.mem_ctrls0.wrPerTurnAround::gmean    17.213105                       # Writes before turning the bus around for reads
system.mem_ctrls0.wrPerTurnAround::stdev     1.072500                       # Writes before turning the bus around for reads
system.mem_ctrls0.wrPerTurnAround::16           59796     40.10%     40.10% # Writes before turning the bus around for reads
system.mem_ctrls0.wrPerTurnAround::17            3054      2.05%     42.14% # Writes before turning the bus around for reads
system.mem_ctrls0.wrPerTurnAround::18           77404     51.90%     94.05% # Writes before turning the bus around for reads
system.mem_ctrls0.wrPerTurnAround::19            7752      5.20%     99.24% # Writes before turning the bus around for reads
system.mem_ctrls0.wrPerTurnAround::20             927      0.62%     99.87% # Writes before turning the bus around for reads
system.mem_ctrls0.wrPerTurnAround::21             159      0.11%     99.97% # Writes before turning the bus around for reads
system.mem_ctrls0.wrPerTurnAround::22              30      0.02%     99.99% # Writes before turning the bus around for reads
system.mem_ctrls0.wrPerTurnAround::23               5      0.00%    100.00% # Writes before turning the bus around for reads
system.mem_ctrls0.wrPerTurnAround::24               1      0.00%    100.00% # Writes before turning the bus around for reads
system.mem_ctrls0.wrPerTurnAround::25               2      0.00%    100.00% # Writes before turning the bus around for reads
system.mem_ctrls0.wrPerTurnAround::26               2      0.00%    100.00% # Writes before turning the bus around for reads
system.mem_ctrls0.wrPerTurnAround::27               1      0.00%    100.00% # Writes before turning the bus around for reads
system.mem_ctrls0.wrPerTurnAround::29               1      0.00%    100.00% # Writes before turning the bus around for reads
system.mem_ctrls0.wrPerTurnAround::total       149134                       # Writes before turning the bus around for reads
system.mem_ctrls0.totQLat                139971078638                       # Total ticks spent queuing
system.mem_ctrls0.totMemAccLat           278814059888                       # Total ticks spent from burst creation until serviced by the DRAM
system.mem_ctrls0.totBusLat               37024795000                       # Total ticks spent in databus transfers
system.mem_ctrls0.avgQLat                    18902.34                       # Average queueing delay per DRAM burst
system.mem_ctrls0.avgBusLat                   5000.00                       # Average bus latency per DRAM burst
system.mem_ctrls0.avgMemAccLat               37652.34                       # Average memory access latency per DRAM burst
system.mem_ctrls0.avgRdBW                      193.99                       # Average DRAM read bandwidth in MiByte/s
system.mem_ctrls0.avgWrBW                       67.38                       # Average achieved write bandwidth in MiByte/s
system.mem_ctrls0.avgRdBWSys                   194.16                       # Average system read bandwidth in MiByte/s
system.mem_ctrls0.avgWrBWSys                    67.38                       # Average system write bandwidth in MiByte/s
system.mem_ctrls0.peakBW                     12800.00                       # Theoretical peak bandwidth in MiByte/s
system.mem_ctrls0.busUtil                        2.04                       # Data bus utilization in percentage
system.mem_ctrls0.busUtilRead                    1.52                       # Data bus utilization in percentage for reads
system.mem_ctrls0.busUtilWrite                   0.53                       # Data bus utilization in percentage for writes
system.mem_ctrls0.avgRdQLen                      1.03                       # Average read queue length when enqueuing
system.mem_ctrls0.avgWrQLen                     24.76                       # Average write queue length when enqueuing
system.mem_ctrls0.readRowHits                 4874976                       # Number of row buffer hits during reads
system.mem_ctrls0.writeRowHits                 632042                       # Number of row buffer hits during writes
system.mem_ctrls0.readRowHitRate                65.83                       # Row buffer hit rate for reads
system.mem_ctrls0.writeRowHitRate               24.57                       # Row buffer hit rate for writes
system.mem_ctrls0.avgGap                    244705.00                       # Average gap between requests
system.mem_ctrls0.pageHitRate                   55.20                       # Row buffer hit rate, read and write combined
system.mem_ctrls0_0.actEnergy             16039553040                       # Energy for activate commands per rank (pJ)
system.mem_ctrls0_0.preEnergy              8525209440                       # Energy for precharge commands per rank (pJ)
system.mem_ctrls0_0.readEnergy            26732638380                       # Energy for read commands per rank (pJ)
system.mem_ctrls0_0.writeEnergy            6760124460                       # Energy for write commands per rank (pJ)
system.mem_ctrls0_0.refreshEnergy        185645865600.000031                       # Energy for refresh commands per rank (pJ)
system.mem_ctrls0_0.actBackEnergy        137037690570                       # Energy for active background per rank (pJ)
system.mem_ctrls0_0.preBackEnergy          5087369760                       # Energy for precharge background per rank (pJ)
system.mem_ctrls0_0.actPowerDownEnergy   778922097150                       # Energy for active power-down per rank (pJ)
system.mem_ctrls0_0.prePowerDownEnergy   100544692800                       # Energy for precharge power-down per rank (pJ)
system.mem_ctrls0_0.selfRefreshEnergy     43401663465                       # Energy for self refresh per rank (pJ)
system.mem_ctrls0_0.totalEnergy          1308749510715                       # Total energy per rank (pJ)
system.mem_ctrls0_0.averagePower           535.719379                       # Core power per rank (mW)
system.mem_ctrls0_0.totalIdleTime        2129081687485                       # Total Idle time Per DRAM Rank
system.mem_ctrls0_0.memoryStateTime::IDLE   4304850134                       # Time in different power states
system.mem_ctrls0_0.memoryStateTime::REF  78594696000                       # Time in different power states
system.mem_ctrls0_0.memoryStateTime::SREF 159091580299                       # Time in different power states
system.mem_ctrls0_0.memoryStateTime::PRE_PDN 261834615409                       # Time in different power states
system.mem_ctrls0_0.memoryStateTime::ACT 230994222709                       # Time in different power states
system.mem_ctrls0_0.memoryStateTime::ACT_PDN 1708155858538                       # Time in different power states
system.mem_ctrls0_1.actEnergy             15876182700                       # Energy for activate commands per rank (pJ)
system.mem_ctrls0_1.preEnergy              8438387430                       # Energy for precharge commands per rank (pJ)
system.mem_ctrls0_1.readEnergy            26138768880                       # Energy for read commands per rank (pJ)
system.mem_ctrls0_1.writeEnergy            6665976540                       # Energy for write commands per rank (pJ)
system.mem_ctrls0_1.refreshEnergy        185515561920.000031                       # Energy for refresh commands per rank (pJ)
system.mem_ctrls0_1.actBackEnergy        137421112470                       # Energy for active background per rank (pJ)
system.mem_ctrls0_1.preBackEnergy          5157468960                       # Energy for precharge background per rank (pJ)
system.mem_ctrls0_1.actPowerDownEnergy   772429224300                       # Energy for active power-down per rank (pJ)
system.mem_ctrls0_1.prePowerDownEnergy   102204293280                       # Energy for precharge power-down per rank (pJ)
system.mem_ctrls0_1.selfRefreshEnergy     46088403285                       # Energy for self refresh per rank (pJ)
system.mem_ctrls0_1.totalEnergy          1305991216095                       # Total energy per rank (pJ)
system.mem_ctrls0_1.averagePower           534.590309                       # Core power per rank (mW)
system.mem_ctrls0_1.totalIdleTime        2128057128862                       # Total Idle time Per DRAM Rank
system.mem_ctrls0_1.memoryStateTime::IDLE   4588617737                       # Time in different power states
system.mem_ctrls0_1.memoryStateTime::REF  78544688000                       # Time in different power states
system.mem_ctrls0_1.memoryStateTime::SREF 167977925154                       # Time in different power states
system.mem_ctrls0_1.memoryStateTime::PRE_PDN 266157016193                       # Time in different power states
system.mem_ctrls0_1.memoryStateTime::ACT 231784513238                       # Time in different power states
system.mem_ctrls0_1.memoryStateTime::ACT_PDN 1693923062767                       # Time in different power states
system.mem_ctrls1.pwrStateResidencyTicks::UNDEFINED 72472948404435                       # Cumulative time (in ticks) in various power states
system.mem_ctrls1.bytes_read::cpu.inst             64                       # Number of bytes read from this memory
system.mem_ctrls1.bytes_read::switch_cpus.inst       117632                       # Number of bytes read from this memory
system.mem_ctrls1.bytes_read::switch_cpus.data    392046272                       # Number of bytes read from this memory
system.mem_ctrls1.bytes_read::switch_cpus_1.inst        35968                       # Number of bytes read from this memory
system.mem_ctrls1.bytes_read::switch_cpus_1.data     82764032                       # Number of bytes read from this memory
system.mem_ctrls1.bytes_read::total         474963968                       # Number of bytes read from this memory
system.mem_ctrls1.bytes_inst_read::cpu.inst           64                       # Number of instructions bytes read from this memory
system.mem_ctrls1.bytes_inst_read::switch_cpus.inst       117632                       # Number of instructions bytes read from this memory
system.mem_ctrls1.bytes_inst_read::switch_cpus_1.inst        35968                       # Number of instructions bytes read from this memory
system.mem_ctrls1.bytes_inst_read::total       153664                       # Number of instructions bytes read from this memory
system.mem_ctrls1.bytes_written::writebacks    164662656                       # Number of bytes written to this memory
system.mem_ctrls1.bytes_written::total      164662656                       # Number of bytes written to this memory
system.mem_ctrls1.num_reads::cpu.inst               1                       # Number of read requests responded to by this memory
system.mem_ctrls1.num_reads::switch_cpus.inst         1838                       # Number of read requests responded to by this memory
system.mem_ctrls1.num_reads::switch_cpus.data      6125723                       # Number of read requests responded to by this memory
system.mem_ctrls1.num_reads::switch_cpus_1.inst          562                       # Number of read requests responded to by this memory
system.mem_ctrls1.num_reads::switch_cpus_1.data      1293188                       # Number of read requests responded to by this memory
system.mem_ctrls1.num_reads::total            7421312                       # Number of read requests responded to by this memory
system.mem_ctrls1.num_writes::writebacks      2572854                       # Number of write requests responded to by this memory
system.mem_ctrls1.num_writes::total           2572854                       # Number of write requests responded to by this memory
system.mem_ctrls1.bw_read::cpu.inst                26                       # Total read bandwidth from this memory (bytes/s)
system.mem_ctrls1.bw_read::switch_cpus.inst        48151                       # Total read bandwidth from this memory (bytes/s)
system.mem_ctrls1.bw_read::switch_cpus.data    160478982                       # Total read bandwidth from this memory (bytes/s)
system.mem_ctrls1.bw_read::switch_cpus_1.inst        14723                       # Total read bandwidth from this memory (bytes/s)
system.mem_ctrls1.bw_read::switch_cpus_1.data     33878367                       # Total read bandwidth from this memory (bytes/s)
system.mem_ctrls1.bw_read::total            194420249                       # Total read bandwidth from this memory (bytes/s)
system.mem_ctrls1.bw_inst_read::cpu.inst           26                       # Instruction read bandwidth from this memory (bytes/s)
system.mem_ctrls1.bw_inst_read::switch_cpus.inst        48151                       # Instruction read bandwidth from this memory (bytes/s)
system.mem_ctrls1.bw_inst_read::switch_cpus_1.inst        14723                       # Instruction read bandwidth from this memory (bytes/s)
system.mem_ctrls1.bw_inst_read::total           62900                       # Instruction read bandwidth from this memory (bytes/s)
system.mem_ctrls1.bw_write::writebacks       67402491                       # Write bandwidth from this memory (bytes/s)
system.mem_ctrls1.bw_write::total            67402491                       # Write bandwidth from this memory (bytes/s)
system.mem_ctrls1.bw_total::writebacks       67402491                       # Total bandwidth to/from this memory (bytes/s)
system.mem_ctrls1.bw_total::cpu.inst               26                       # Total bandwidth to/from this memory (bytes/s)
system.mem_ctrls1.bw_total::switch_cpus.inst        48151                       # Total bandwidth to/from this memory (bytes/s)
system.mem_ctrls1.bw_total::switch_cpus.data    160478982                       # Total bandwidth to/from this memory (bytes/s)
system.mem_ctrls1.bw_total::switch_cpus_1.inst        14723                       # Total bandwidth to/from this memory (bytes/s)
system.mem_ctrls1.bw_total::switch_cpus_1.data     33878367                       # Total bandwidth to/from this memory (bytes/s)
system.mem_ctrls1.bw_total::total           261822740                       # Total bandwidth to/from this memory (bytes/s)
system.mem_ctrls1.readReqs                    7421312                       # Number of read requests accepted
system.mem_ctrls1.writeReqs                   2572854                       # Number of write requests accepted
system.mem_ctrls1.readBursts                  7421312                       # Number of DRAM read bursts, including those serviced by the write queue
system.mem_ctrls1.writeBursts                 2572854                       # Number of DRAM write bursts, including those merged in the write queue
system.mem_ctrls1.bytesReadDRAM             474555200                       # Total number of bytes read from DRAM
system.mem_ctrls1.bytesReadWrQ                 408768                       # Total number of bytes read from write queue
system.mem_ctrls1.bytesWritten              164661248                       # Total number of bytes written to DRAM
system.mem_ctrls1.bytesReadSys              474963968                       # Total read bytes from the system interface side
system.mem_ctrls1.bytesWrittenSys           164662656                       # Total written bytes from the system interface side
system.mem_ctrls1.servicedByWrQ                  6387                       # Number of DRAM read bursts serviced by the write queue
system.mem_ctrls1.mergedWrBursts                    0                       # Number of DRAM write bursts merged with an existing one
system.mem_ctrls1.neitherReadNorWriteReqs            0                       # Number of requests that are neither read nor write
system.mem_ctrls1.perBankRdBursts::0           484456                       # Per bank write bursts
system.mem_ctrls1.perBankRdBursts::1           468265                       # Per bank write bursts
system.mem_ctrls1.perBankRdBursts::2           467127                       # Per bank write bursts
system.mem_ctrls1.perBankRdBursts::3           469120                       # Per bank write bursts
system.mem_ctrls1.perBankRdBursts::4           467744                       # Per bank write bursts
system.mem_ctrls1.perBankRdBursts::5           476728                       # Per bank write bursts
system.mem_ctrls1.perBankRdBursts::6           456125                       # Per bank write bursts
system.mem_ctrls1.perBankRdBursts::7           461012                       # Per bank write bursts
system.mem_ctrls1.perBankRdBursts::8           473344                       # Per bank write bursts
system.mem_ctrls1.perBankRdBursts::9           455995                       # Per bank write bursts
system.mem_ctrls1.perBankRdBursts::10          456703                       # Per bank write bursts
system.mem_ctrls1.perBankRdBursts::11          460770                       # Per bank write bursts
system.mem_ctrls1.perBankRdBursts::12          451511                       # Per bank write bursts
system.mem_ctrls1.perBankRdBursts::13          451528                       # Per bank write bursts
system.mem_ctrls1.perBankRdBursts::14          451342                       # Per bank write bursts
system.mem_ctrls1.perBankRdBursts::15          463155                       # Per bank write bursts
system.mem_ctrls1.perBankWrBursts::0           169575                       # Per bank write bursts
system.mem_ctrls1.perBankWrBursts::1           159089                       # Per bank write bursts
system.mem_ctrls1.perBankWrBursts::2           164619                       # Per bank write bursts
system.mem_ctrls1.perBankWrBursts::3           163297                       # Per bank write bursts
system.mem_ctrls1.perBankWrBursts::4           162014                       # Per bank write bursts
system.mem_ctrls1.perBankWrBursts::5           162589                       # Per bank write bursts
system.mem_ctrls1.perBankWrBursts::6           157284                       # Per bank write bursts
system.mem_ctrls1.perBankWrBursts::7           157760                       # Per bank write bursts
system.mem_ctrls1.perBankWrBursts::8           157665                       # Per bank write bursts
system.mem_ctrls1.perBankWrBursts::9           154323                       # Per bank write bursts
system.mem_ctrls1.perBankWrBursts::10          155778                       # Per bank write bursts
system.mem_ctrls1.perBankWrBursts::11          156026                       # Per bank write bursts
system.mem_ctrls1.perBankWrBursts::12          153460                       # Per bank write bursts
system.mem_ctrls1.perBankWrBursts::13          160419                       # Per bank write bursts
system.mem_ctrls1.perBankWrBursts::14          168643                       # Per bank write bursts
system.mem_ctrls1.perBankWrBursts::15          170291                       # Per bank write bursts
system.mem_ctrls1.numRdRetry                        0                       # Number of times read queue was full causing retry
system.mem_ctrls1.numWrRetry                        0                       # Number of times write queue was full causing retry
system.mem_ctrls1.totGap                 2442975715197                       # Total gap between requests
system.mem_ctrls1.readPktSize::0                    0                       # Read request sizes (log2)
system.mem_ctrls1.readPktSize::1                    0                       # Read request sizes (log2)
system.mem_ctrls1.readPktSize::2                    0                       # Read request sizes (log2)
system.mem_ctrls1.readPktSize::3                    0                       # Read request sizes (log2)
system.mem_ctrls1.readPktSize::4                    0                       # Read request sizes (log2)
system.mem_ctrls1.readPktSize::5                    0                       # Read request sizes (log2)
system.mem_ctrls1.readPktSize::6              7421312                       # Read request sizes (log2)
system.mem_ctrls1.writePktSize::0                   0                       # Write request sizes (log2)
system.mem_ctrls1.writePktSize::1                   0                       # Write request sizes (log2)
system.mem_ctrls1.writePktSize::2                   0                       # Write request sizes (log2)
system.mem_ctrls1.writePktSize::3                   0                       # Write request sizes (log2)
system.mem_ctrls1.writePktSize::4                   0                       # Write request sizes (log2)
system.mem_ctrls1.writePktSize::5                   0                       # Write request sizes (log2)
system.mem_ctrls1.writePktSize::6             2572854                       # Write request sizes (log2)
system.mem_ctrls1.rdQLenPdf::0                7023546                       # What read queue length does an incoming req see
system.mem_ctrls1.rdQLenPdf::1                 332191                       # What read queue length does an incoming req see
system.mem_ctrls1.rdQLenPdf::2                  53577                       # What read queue length does an incoming req see
system.mem_ctrls1.rdQLenPdf::3                   5609                       # What read queue length does an incoming req see
system.mem_ctrls1.rdQLenPdf::4                      2                       # What read queue length does an incoming req see
system.mem_ctrls1.rdQLenPdf::5                      0                       # What read queue length does an incoming req see
system.mem_ctrls1.rdQLenPdf::6                      0                       # What read queue length does an incoming req see
system.mem_ctrls1.rdQLenPdf::7                      0                       # What read queue length does an incoming req see
system.mem_ctrls1.rdQLenPdf::8                      0                       # What read queue length does an incoming req see
system.mem_ctrls1.rdQLenPdf::9                      0                       # What read queue length does an incoming req see
system.mem_ctrls1.rdQLenPdf::10                     0                       # What read queue length does an incoming req see
system.mem_ctrls1.rdQLenPdf::11                     0                       # What read queue length does an incoming req see
system.mem_ctrls1.rdQLenPdf::12                     0                       # What read queue length does an incoming req see
system.mem_ctrls1.rdQLenPdf::13                     0                       # What read queue length does an incoming req see
system.mem_ctrls1.rdQLenPdf::14                     0                       # What read queue length does an incoming req see
system.mem_ctrls1.rdQLenPdf::15                     0                       # What read queue length does an incoming req see
system.mem_ctrls1.rdQLenPdf::16                     0                       # What read queue length does an incoming req see
system.mem_ctrls1.rdQLenPdf::17                     0                       # What read queue length does an incoming req see
system.mem_ctrls1.rdQLenPdf::18                     0                       # What read queue length does an incoming req see
system.mem_ctrls1.rdQLenPdf::19                     0                       # What read queue length does an incoming req see
system.mem_ctrls1.rdQLenPdf::20                     0                       # What read queue length does an incoming req see
system.mem_ctrls1.rdQLenPdf::21                     0                       # What read queue length does an incoming req see
system.mem_ctrls1.rdQLenPdf::22                     0                       # What read queue length does an incoming req see
system.mem_ctrls1.rdQLenPdf::23                     0                       # What read queue length does an incoming req see
system.mem_ctrls1.rdQLenPdf::24                     0                       # What read queue length does an incoming req see
system.mem_ctrls1.rdQLenPdf::25                     0                       # What read queue length does an incoming req see
system.mem_ctrls1.rdQLenPdf::26                     0                       # What read queue length does an incoming req see
system.mem_ctrls1.rdQLenPdf::27                     0                       # What read queue length does an incoming req see
system.mem_ctrls1.rdQLenPdf::28                     0                       # What read queue length does an incoming req see
system.mem_ctrls1.rdQLenPdf::29                     0                       # What read queue length does an incoming req see
system.mem_ctrls1.rdQLenPdf::30                     0                       # What read queue length does an incoming req see
system.mem_ctrls1.rdQLenPdf::31                     0                       # What read queue length does an incoming req see
system.mem_ctrls1.wrQLenPdf::0                      2                       # What write queue length does an incoming req see
system.mem_ctrls1.wrQLenPdf::1                      2                       # What write queue length does an incoming req see
system.mem_ctrls1.wrQLenPdf::2                      2                       # What write queue length does an incoming req see
system.mem_ctrls1.wrQLenPdf::3                      2                       # What write queue length does an incoming req see
system.mem_ctrls1.wrQLenPdf::4                      2                       # What write queue length does an incoming req see
system.mem_ctrls1.wrQLenPdf::5                      2                       # What write queue length does an incoming req see
system.mem_ctrls1.wrQLenPdf::6                      2                       # What write queue length does an incoming req see
system.mem_ctrls1.wrQLenPdf::7                      2                       # What write queue length does an incoming req see
system.mem_ctrls1.wrQLenPdf::8                      2                       # What write queue length does an incoming req see
system.mem_ctrls1.wrQLenPdf::9                      2                       # What write queue length does an incoming req see
system.mem_ctrls1.wrQLenPdf::10                     2                       # What write queue length does an incoming req see
system.mem_ctrls1.wrQLenPdf::11                     2                       # What write queue length does an incoming req see
system.mem_ctrls1.wrQLenPdf::12                     2                       # What write queue length does an incoming req see
system.mem_ctrls1.wrQLenPdf::13                     2                       # What write queue length does an incoming req see
system.mem_ctrls1.wrQLenPdf::14                     2                       # What write queue length does an incoming req see
system.mem_ctrls1.wrQLenPdf::15                 85746                       # What write queue length does an incoming req see
system.mem_ctrls1.wrQLenPdf::16                 90161                       # What write queue length does an incoming req see
system.mem_ctrls1.wrQLenPdf::17                142619                       # What write queue length does an incoming req see
system.mem_ctrls1.wrQLenPdf::18                148816                       # What write queue length does an incoming req see
system.mem_ctrls1.wrQLenPdf::19                150098                       # What write queue length does an incoming req see
system.mem_ctrls1.wrQLenPdf::20                150311                       # What write queue length does an incoming req see
system.mem_ctrls1.wrQLenPdf::21                150304                       # What write queue length does an incoming req see
system.mem_ctrls1.wrQLenPdf::22                150167                       # What write queue length does an incoming req see
system.mem_ctrls1.wrQLenPdf::23                150131                       # What write queue length does an incoming req see
system.mem_ctrls1.wrQLenPdf::24                150067                       # What write queue length does an incoming req see
system.mem_ctrls1.wrQLenPdf::25                150050                       # What write queue length does an incoming req see
system.mem_ctrls1.wrQLenPdf::26                150144                       # What write queue length does an incoming req see
system.mem_ctrls1.wrQLenPdf::27                150740                       # What write queue length does an incoming req see
system.mem_ctrls1.wrQLenPdf::28                151187                       # What write queue length does an incoming req see
system.mem_ctrls1.wrQLenPdf::29                152127                       # What write queue length does an incoming req see
system.mem_ctrls1.wrQLenPdf::30                151187                       # What write queue length does an incoming req see
system.mem_ctrls1.wrQLenPdf::31                149466                       # What write queue length does an incoming req see
system.mem_ctrls1.wrQLenPdf::32                149248                       # What write queue length does an incoming req see
system.mem_ctrls1.wrQLenPdf::33                   168                       # What write queue length does an incoming req see
system.mem_ctrls1.wrQLenPdf::34                    54                       # What write queue length does an incoming req see
system.mem_ctrls1.wrQLenPdf::35                    24                       # What write queue length does an incoming req see
system.mem_ctrls1.wrQLenPdf::36                     5                       # What write queue length does an incoming req see
system.mem_ctrls1.wrQLenPdf::37                     2                       # What write queue length does an incoming req see
system.mem_ctrls1.wrQLenPdf::38                     1                       # What write queue length does an incoming req see
system.mem_ctrls1.wrQLenPdf::39                     1                       # What write queue length does an incoming req see
system.mem_ctrls1.wrQLenPdf::40                     0                       # What write queue length does an incoming req see
system.mem_ctrls1.wrQLenPdf::41                     0                       # What write queue length does an incoming req see
system.mem_ctrls1.wrQLenPdf::42                     0                       # What write queue length does an incoming req see
system.mem_ctrls1.wrQLenPdf::43                     0                       # What write queue length does an incoming req see
system.mem_ctrls1.wrQLenPdf::44                     0                       # What write queue length does an incoming req see
system.mem_ctrls1.wrQLenPdf::45                     0                       # What write queue length does an incoming req see
system.mem_ctrls1.wrQLenPdf::46                     0                       # What write queue length does an incoming req see
system.mem_ctrls1.wrQLenPdf::47                     0                       # What write queue length does an incoming req see
system.mem_ctrls1.wrQLenPdf::48                     0                       # What write queue length does an incoming req see
system.mem_ctrls1.wrQLenPdf::49                     0                       # What write queue length does an incoming req see
system.mem_ctrls1.wrQLenPdf::50                     0                       # What write queue length does an incoming req see
system.mem_ctrls1.wrQLenPdf::51                     0                       # What write queue length does an incoming req see
system.mem_ctrls1.wrQLenPdf::52                     0                       # What write queue length does an incoming req see
system.mem_ctrls1.wrQLenPdf::53                     0                       # What write queue length does an incoming req see
system.mem_ctrls1.wrQLenPdf::54                     0                       # What write queue length does an incoming req see
system.mem_ctrls1.wrQLenPdf::55                     0                       # What write queue length does an incoming req see
system.mem_ctrls1.wrQLenPdf::56                     0                       # What write queue length does an incoming req see
system.mem_ctrls1.wrQLenPdf::57                     0                       # What write queue length does an incoming req see
system.mem_ctrls1.wrQLenPdf::58                     0                       # What write queue length does an incoming req see
system.mem_ctrls1.wrQLenPdf::59                     0                       # What write queue length does an incoming req see
system.mem_ctrls1.wrQLenPdf::60                     0                       # What write queue length does an incoming req see
system.mem_ctrls1.wrQLenPdf::61                     0                       # What write queue length does an incoming req see
system.mem_ctrls1.wrQLenPdf::62                     0                       # What write queue length does an incoming req see
system.mem_ctrls1.wrQLenPdf::63                     0                       # What write queue length does an incoming req see
system.mem_ctrls1.bytesPerActivate::samples      4475003                       # Bytes accessed per row activation
system.mem_ctrls1.bytesPerActivate::mean   142.841497                       # Bytes accessed per row activation
system.mem_ctrls1.bytesPerActivate::gmean    98.499294                       # Bytes accessed per row activation
system.mem_ctrls1.bytesPerActivate::stdev   186.117053                       # Bytes accessed per row activation
system.mem_ctrls1.bytesPerActivate::0-127      2936306     65.62%     65.62% # Bytes accessed per row activation
system.mem_ctrls1.bytesPerActivate::128-255       948361     21.19%     86.81% # Bytes accessed per row activation
system.mem_ctrls1.bytesPerActivate::256-383       228724      5.11%     91.92% # Bytes accessed per row activation
system.mem_ctrls1.bytesPerActivate::384-511       110875      2.48%     94.40% # Bytes accessed per row activation
system.mem_ctrls1.bytesPerActivate::512-639        56855      1.27%     95.67% # Bytes accessed per row activation
system.mem_ctrls1.bytesPerActivate::640-767        38302      0.86%     96.52% # Bytes accessed per row activation
system.mem_ctrls1.bytesPerActivate::768-895        32731      0.73%     97.25% # Bytes accessed per row activation
system.mem_ctrls1.bytesPerActivate::896-1023        32632      0.73%     97.98% # Bytes accessed per row activation
system.mem_ctrls1.bytesPerActivate::1024-1151        90217      2.02%    100.00% # Bytes accessed per row activation
system.mem_ctrls1.bytesPerActivate::total      4475003                       # Bytes accessed per row activation
system.mem_ctrls1.rdPerTurnAround::samples       149176                       # Reads before turning the bus around for writes
system.mem_ctrls1.rdPerTurnAround::mean     49.705717                       # Reads before turning the bus around for writes
system.mem_ctrls1.rdPerTurnAround::stdev   109.830784                       # Reads before turning the bus around for writes
system.mem_ctrls1.rdPerTurnAround::0-1023       149011     99.89%     99.89% # Reads before turning the bus around for writes
system.mem_ctrls1.rdPerTurnAround::1024-2047          126      0.08%     99.97% # Reads before turning the bus around for writes
system.mem_ctrls1.rdPerTurnAround::2048-3071           34      0.02%    100.00% # Reads before turning the bus around for writes
system.mem_ctrls1.rdPerTurnAround::3072-4095            4      0.00%    100.00% # Reads before turning the bus around for writes
system.mem_ctrls1.rdPerTurnAround::30720-31743            1      0.00%    100.00% # Reads before turning the bus around for writes
system.mem_ctrls1.rdPerTurnAround::total       149176                       # Reads before turning the bus around for writes
system.mem_ctrls1.wrPerTurnAround::samples       149176                       # Writes before turning the bus around for reads
system.mem_ctrls1.wrPerTurnAround::mean     17.246957                       # Writes before turning the bus around for reads
system.mem_ctrls1.wrPerTurnAround::gmean    17.213550                       # Writes before turning the bus around for reads
system.mem_ctrls1.wrPerTurnAround::stdev     1.071351                       # Writes before turning the bus around for reads
system.mem_ctrls1.wrPerTurnAround::16           59742     40.05%     40.05% # Writes before turning the bus around for reads
system.mem_ctrls1.wrPerTurnAround::17            3119      2.09%     42.14% # Writes before turning the bus around for reads
system.mem_ctrls1.wrPerTurnAround::18           77406     51.89%     94.03% # Writes before turning the bus around for reads
system.mem_ctrls1.wrPerTurnAround::19            7818      5.24%     99.27% # Writes before turning the bus around for reads
system.mem_ctrls1.wrPerTurnAround::20             891      0.60%     99.87% # Writes before turning the bus around for reads
system.mem_ctrls1.wrPerTurnAround::21             152      0.10%     99.97% # Writes before turning the bus around for reads
system.mem_ctrls1.wrPerTurnAround::22              38      0.03%     99.99% # Writes before turning the bus around for reads
system.mem_ctrls1.wrPerTurnAround::23               6      0.00%    100.00% # Writes before turning the bus around for reads
system.mem_ctrls1.wrPerTurnAround::24               2      0.00%    100.00% # Writes before turning the bus around for reads
system.mem_ctrls1.wrPerTurnAround::25               1      0.00%    100.00% # Writes before turning the bus around for reads
system.mem_ctrls1.wrPerTurnAround::28               1      0.00%    100.00% # Writes before turning the bus around for reads
system.mem_ctrls1.wrPerTurnAround::total       149176                       # Writes before turning the bus around for reads
system.mem_ctrls1.totQLat                140095098991                       # Total ticks spent queuing
system.mem_ctrls1.totMemAccLat           279124942741                       # Total ticks spent from burst creation until serviced by the DRAM
system.mem_ctrls1.totBusLat               37074625000                       # Total ticks spent in databus transfers
system.mem_ctrls1.avgQLat                    18893.66                       # Average queueing delay per DRAM burst
system.mem_ctrls1.avgBusLat                   5000.00                       # Average bus latency per DRAM burst
system.mem_ctrls1.avgMemAccLat               37643.66                       # Average memory access latency per DRAM burst
system.mem_ctrls1.avgRdBW                      194.25                       # Average DRAM read bandwidth in MiByte/s
system.mem_ctrls1.avgWrBW                       67.40                       # Average achieved write bandwidth in MiByte/s
system.mem_ctrls1.avgRdBWSys                   194.42                       # Average system read bandwidth in MiByte/s
system.mem_ctrls1.avgWrBWSys                    67.40                       # Average system write bandwidth in MiByte/s
system.mem_ctrls1.peakBW                     12800.00                       # Theoretical peak bandwidth in MiByte/s
system.mem_ctrls1.busUtil                        2.04                       # Data bus utilization in percentage
system.mem_ctrls1.busUtilRead                    1.52                       # Data bus utilization in percentage for reads
system.mem_ctrls1.busUtilWrite                   0.53                       # Data bus utilization in percentage for writes
system.mem_ctrls1.avgRdQLen                      1.03                       # Average read queue length when enqueuing
system.mem_ctrls1.avgWrQLen                     24.77                       # Average write queue length when enqueuing
system.mem_ctrls1.readRowHits                 4880383                       # Number of row buffer hits during reads
system.mem_ctrls1.writeRowHits                 632366                       # Number of row buffer hits during writes
system.mem_ctrls1.readRowHitRate                65.82                       # Row buffer hit rate for reads
system.mem_ctrls1.writeRowHitRate               24.58                       # Row buffer hit rate for writes
system.mem_ctrls1.avgGap                    244440.18                       # Average gap between requests
system.mem_ctrls1.pageHitRate                   55.19                       # Row buffer hit rate, read and write combined
system.mem_ctrls1_0.actEnergy             16059602160                       # Energy for activate commands per rank (pJ)
system.mem_ctrls1_0.preEnergy              8535873390                       # Energy for precharge commands per rank (pJ)
system.mem_ctrls1_0.readEnergy            26779119780                       # Energy for read commands per rank (pJ)
system.mem_ctrls1_0.writeEnergy            6766304940                       # Energy for write commands per rank (pJ)
system.mem_ctrls1_0.refreshEnergy        185841935760.000031                       # Energy for refresh commands per rank (pJ)
system.mem_ctrls1_0.actBackEnergy        136868338440                       # Energy for active background per rank (pJ)
system.mem_ctrls1_0.preBackEnergy          5085783360                       # Energy for precharge background per rank (pJ)
system.mem_ctrls1_0.actPowerDownEnergy   780815233590                       # Energy for active power-down per rank (pJ)
system.mem_ctrls1_0.prePowerDownEnergy   100290628320                       # Energy for precharge power-down per rank (pJ)
system.mem_ctrls1_0.selfRefreshEnergy     42606524205                       # Energy for self refresh per rank (pJ)
system.mem_ctrls1_0.totalEnergy          1309705277745                       # Total energy per rank (pJ)
system.mem_ctrls1_0.averagePower           536.110613                       # Core power per rank (mW)
system.mem_ctrls1_0.totalIdleTime        2129463907631                       # Total Idle time Per DRAM Rank
system.mem_ctrls1_0.memoryStateTime::IDLE   4294157255                       # Time in different power states
system.mem_ctrls1_0.memoryStateTime::REF  78677210000                       # Time in different power states
system.mem_ctrls1_0.memoryStateTime::SREF 155969743034                       # Time in different power states
system.mem_ctrls1_0.memoryStateTime::PRE_PDN 261177049895                       # Time in different power states
system.mem_ctrls1_0.memoryStateTime::ACT 230540194859                       # Time in different power states
system.mem_ctrls1_0.memoryStateTime::ACT_PDN 1712317468046                       # Time in different power states
system.mem_ctrls1_1.actEnergy             15891954960                       # Energy for activate commands per rank (pJ)
system.mem_ctrls1_1.preEnergy              8446762995                       # Energy for precharge commands per rank (pJ)
system.mem_ctrls1_1.readEnergy            26163444720                       # Energy for read commands per rank (pJ)
system.mem_ctrls1_1.writeEnergy            6663878100                       # Energy for write commands per rank (pJ)
system.mem_ctrls1_1.refreshEnergy        185330555280.000031                       # Energy for refresh commands per rank (pJ)
system.mem_ctrls1_1.actBackEnergy        137320664220                       # Energy for active background per rank (pJ)
system.mem_ctrls1_1.preBackEnergy          5158855680                       # Energy for precharge background per rank (pJ)
system.mem_ctrls1_1.actPowerDownEnergy   772390109760                       # Energy for active power-down per rank (pJ)
system.mem_ctrls1_1.prePowerDownEnergy   101446947840                       # Energy for precharge power-down per rank (pJ)
system.mem_ctrls1_1.selfRefreshEnergy     46628457015                       # Energy for self refresh per rank (pJ)
system.mem_ctrls1_1.totalEnergy          1305492542340                       # Total energy per rank (pJ)
system.mem_ctrls1_1.averagePower           534.386181                       # Core power per rank (mW)
system.mem_ctrls1_1.totalIdleTime        2128288993784                       # Total Idle time Per DRAM Rank
system.mem_ctrls1_1.memoryStateTime::IDLE   4583667778                       # Time in different power states
system.mem_ctrls1_1.memoryStateTime::REF  78466464000                       # Time in different power states
system.mem_ctrls1_1.memoryStateTime::SREF 170263581336                       # Time in different power states
system.mem_ctrls1_1.memoryStateTime::PRE_PDN 264185349138                       # Time in different power states
system.mem_ctrls1_1.memoryStateTime::ACT 231636643120                       # Time in different power states
system.mem_ctrls1_1.memoryStateTime::ACT_PDN 1693840117717                       # Time in different power states
system.pwrStateResidencyTicks::UNDEFINED 72472948404435                       # Cumulative time (in ticks) in various power states
system.cpu.branchPred.lookups                       1                       # Number of BP lookups
system.cpu.branchPred.condPredicted                 1                       # Number of conditional branches predicted
system.cpu.branchPred.condIncorrect                 0                       # Number of conditional branches incorrect
system.cpu.branchPred.BTBLookups                    0                       # Number of BTB lookups
system.cpu.branchPred.BTBHits                       0                       # Number of BTB hits
system.cpu.branchPred.BTBCorrect                    0                       # Number of correct BTB predictions (this stat may not work properly.
system.cpu.branchPred.BTBHitPct                   nan                       # BTB Hit Percentage
system.cpu.branchPred.usedRAS                       0                       # Number of times the RAS was used to get a target.
system.cpu.branchPred.RASInCorrect                  0                       # Number of incorrect RAS predictions.
system.cpu.branchPred.indirectLookups               0                       # Number of indirect predictor lookups.
system.cpu.branchPred.indirectHits                  0                       # Number of indirect target hits.
system.cpu.branchPred.indirectMisses                0                       # Number of indirect misses.
system.cpu.branchPredindirectMispredicted            0                       # Number of mispredicted indirect branches.
system.cpu_voltage_domain.voltage                   1                       # Voltage in Volts
system.cpu_clk_domain.clock                       333                       # Clock period in ticks
system.cpu.dtb.fetch_hits                           0                       # ITB hits
system.cpu.dtb.fetch_misses                         0                       # ITB misses
system.cpu.dtb.fetch_acv                            0                       # ITB acv
system.cpu.dtb.fetch_accesses                       0                       # ITB accesses
system.cpu.dtb.read_hits                            2                       # DTB read hits
system.cpu.dtb.read_misses                          0                       # DTB read misses
system.cpu.dtb.read_acv                             0                       # DTB read access violations
system.cpu.dtb.read_accesses                        2                       # DTB read accesses
system.cpu.dtb.write_hits                           0                       # DTB write hits
system.cpu.dtb.write_misses                         0                       # DTB write misses
system.cpu.dtb.write_acv                            0                       # DTB write access violations
system.cpu.dtb.write_accesses                       0                       # DTB write accesses
system.cpu.dtb.data_hits                            2                       # DTB hits
system.cpu.dtb.data_misses                          0                       # DTB misses
system.cpu.dtb.data_acv                             0                       # DTB access violations
system.cpu.dtb.data_accesses                        2                       # DTB accesses
system.cpu.itb.fetch_hits                           3                       # ITB hits
system.cpu.itb.fetch_misses                         0                       # ITB misses
system.cpu.itb.fetch_acv                            0                       # ITB acv
system.cpu.itb.fetch_accesses                       3                       # ITB accesses
system.cpu.itb.read_hits                            0                       # DTB read hits
system.cpu.itb.read_misses                          0                       # DTB read misses
system.cpu.itb.read_acv                             0                       # DTB read access violations
system.cpu.itb.read_accesses                        0                       # DTB read accesses
system.cpu.itb.write_hits                           0                       # DTB write hits
system.cpu.itb.write_misses                         0                       # DTB write misses
system.cpu.itb.write_acv                            0                       # DTB write access violations
system.cpu.itb.write_accesses                       0                       # DTB write accesses
system.cpu.itb.data_hits                            0                       # DTB hits
system.cpu.itb.data_misses                          0                       # DTB misses
system.cpu.itb.data_acv                             0                       # DTB access violations
system.cpu.itb.data_accesses                        0                       # DTB accesses
system.cpu.workload.num_syscalls                    5                       # Number of system calls
system.cpu.pwrStateResidencyTicks::ON    2442975823089                       # Cumulative time (in ticks) in various power states
system.cpu.numCycles                              290                       # number of cpu cycles simulated
system.cpu.numWorkItemsStarted                      0                       # number of work items this cpu started
system.cpu.numWorkItemsCompleted                    0                       # number of work items this cpu completed
system.cpu.fetch.icacheStallCycles                 18                       # Number of cycles fetch is stalled on an Icache miss
system.cpu.fetch.Insts                             10                       # Number of instructions fetch has processed
system.cpu.fetch.Branches                           1                       # Number of branches that fetch encountered
system.cpu.fetch.Cycles                             2                       # Number of cycles fetch has run and was not squashing or blocked
system.cpu.fetch.SquashCycles                       3                       # Number of cycles fetch has spent squashing
system.cpu.fetch.PendingDrainCycles                 3                       # Number of cycles fetch has spent waiting on pipes to drain
system.cpu.fetch.CacheLines                         3                       # Number of cache lines fetched
system.cpu.fetch.IcacheSquashes                     2                       # Number of outstanding Icache misses that were squashed
[...]
system.switch_cpus_1.iq.int_inst_queue_wakeup_accesses    196338947                       # Number of integer instruction queue wakeup accesses
system.switch_cpus_1.iq.fp_inst_queue_reads    132683244                       # Number of floating instruction queue reads
system.switch_cpus_1.iq.fp_inst_queue_writes     84597109                       # Number of floating instruction queue writes
system.switch_cpus_1.iq.fp_inst_queue_wakeup_accesses     59342707                       # Number of floating instruction queue wakeup accesses
system.switch_cpus_1.iq.int_alu_accesses    212561439                       # Number of integer alu accesses
system.switch_cpus_1.iq.fp_alu_accesses      67898403                       # Number of floating point alu accesses
system.switch_cpus_1.iew.lsq.thread0.forwLoads      2265706                       # Number of loads that had data forwarded from stores
system.switch_cpus_1.iew.lsq.thread0.invAddrLoads            0                       # Number of loads ignored due to an invalid address
system.switch_cpus_1.iew.lsq.thread0.squashedLoads     21461401                       # Number of loads squashed
system.switch_cpus_1.iew.lsq.thread0.ignoredResponses        15137                       # Number of memory responses ignored because the instruction is squashed
system.switch_cpus_1.iew.lsq.thread0.memOrderViolation         7869                       # Number of memory ordering violations
system.switch_cpus_1.iew.lsq.thread0.squashedStores      7127853                       # Number of stores squashed
system.switch_cpus_1.iew.lsq.thread0.invAddrSwpfs            0                       # Number of software prefetches ignored due to an invalid address
system.switch_cpus_1.iew.lsq.thread0.blockedLoads            0                       # Number of blocked loads due to partial load-store forwarding
system.switch_cpus_1.iew.lsq.thread0.rescheduledLoads         6010                       # Number of loads that were rescheduled
system.switch_cpus_1.iew.lsq.thread0.cacheBlocked     12857082                       # Number of times an access to memory failed due to the cache being blocked
system.switch_cpus_1.iew.iewIdleCycles              0                       # Number of cycles IEW is idle
system.switch_cpus_1.iew.iewSquashCycles      1484026                       # Number of cycles IEW is squashing
system.switch_cpus_1.iew.iewBlockCycles     102800954                       # Number of cycles IEW is blocking
system.switch_cpus_1.iew.iewUnblockCycles     47936671                       # Number of cycles IEW is unblocking
system.switch_cpus_1.iew.iewDispatchedInsts    291855416                       # Number of instructions dispatched to IQ
system.switch_cpus_1.iew.iewDispSquashedInsts       147940                       # Number of squashed instructions skipped by dispatch
system.switch_cpus_1.iew.iewDispLoadInsts     61133132                       # Number of dispatched load instructions
system.switch_cpus_1.iew.iewDispStoreInsts     19118896                       # Number of dispatched store instructions
system.switch_cpus_1.iew.iewDispNonSpecInsts          207                       # Number of dispatched non-speculative instructions
system.switch_cpus_1.iew.iewIQFullEvents      1061085                       # Number of times the IQ has become full, causing a stall
system.switch_cpus_1.iew.iewLSQFullEvents     46365990                       # Number of times the LSQ has become full, causing a stall
system.switch_cpus_1.iew.memOrderViolationEvents         7869                       # Number of memory order violations
system.switch_cpus_1.iew.predictedTakenIncorrect       824192                       # Number of branches that were predicted taken incorrectly
system.switch_cpus_1.iew.predictedNotTakenIncorrect       564348                       # Number of branches that were predicted not taken incorrectly
system.switch_cpus_1.iew.branchMispredicts      1388540                       # Number of branch mispredicts detected at execute
system.switch_cpus_1.iew.iewExecutedInsts    271776305                       # Number of executed instructions
system.switch_cpus_1.iew.iewExecLoadInsts     68266699                       # Number of load instructions executed
system.switch_cpus_1.iew.iewExecSquashedInsts      1798027                       # Number of squashed instructions skipped in execute
system.switch_cpus_1.iew.exec_swp                   0                       # number of swp insts executed
system.switch_cpus_1.iew.exec_nop             1881063                       # number of nop insts executed
system.switch_cpus_1.iew.exec_refs           83968797                       # number of memory reference insts executed
system.switch_cpus_1.iew.exec_branches       34661417                       # Number of branches executed
system.switch_cpus_1.iew.exec_stores         15702098                       # Number of stores executed
system.switch_cpus_1.iew.exec_rate           0.592975                       # Inst execution rate
system.switch_cpus_1.iew.wb_sent            257674262                       # cumulative count of insts sent to commit
system.switch_cpus_1.iew.wb_count           255681654                       # cumulative count of insts written-back
system.switch_cpus_1.iew.wb_producers       153390867                       # num instructions producing a value
system.switch_cpus_1.iew.wb_consumers       189054395                       # num instructions consuming a value
system.switch_cpus_1.iew.wb_rate             0.557859                       # insts written-back per cycle
system.switch_cpus_1.iew.wb_fanout           0.811358                       # average fanout of values written-back
system.switch_cpus_1.commit.commitSquashedInsts     86400255                       # The number of squashed insts skipped by commit
system.switch_cpus_1.commit.commitNonSpecStalls          204                       # The number of times commit has been forced to stall to communicate backwards
system.switch_cpus_1.commit.branchMispredicts      1111753                       # The number of times a branch was mispredicted
system.switch_cpus_1.commit.committed_per_cycle::samples    446169397                       # Number of insts commited each cycle
system.switch_cpus_1.commit.committed_per_cycle::mean     0.450991                       # Number of insts commited each cycle
system.switch_cpus_1.commit.committed_per_cycle::stdev     1.717047                       # Number of insts commited each cycle
system.switch_cpus_1.commit.committed_per_cycle::underflows            0      0.00%      0.00% # Number of insts commited each cycle
system.switch_cpus_1.commit.committed_per_cycle::0    407227113     91.27%     91.27% # Number of insts commited each cycle
system.switch_cpus_1.commit.committed_per_cycle::1      9132673      2.05%     93.32% # Number of insts commited each cycle
system.switch_cpus_1.commit.committed_per_cycle::2      3999320      0.90%     94.22% # Number of insts commited each cycle
system.switch_cpus_1.commit.committed_per_cycle::3      1854893      0.42%     94.63% # Number of insts commited each cycle
system.switch_cpus_1.commit.committed_per_cycle::4      1244794      0.28%     94.91% # Number of insts commited each cycle
system.switch_cpus_1.commit.committed_per_cycle::5      1937084      0.43%     95.34% # Number of insts commited each cycle
system.switch_cpus_1.commit.committed_per_cycle::6       724795      0.16%     95.51% # Number of insts commited each cycle
system.switch_cpus_1.commit.committed_per_cycle::7       880810      0.20%     95.70% # Number of insts commited each cycle
system.switch_cpus_1.commit.committed_per_cycle::8     19167915      4.30%    100.00% # Number of insts commited each cycle
system.switch_cpus_1.commit.committed_per_cycle::overflows            0      0.00%    100.00% # Number of insts commited each cycle
system.switch_cpus_1.commit.committed_per_cycle::min_value            0                       # Number of insts commited each cycle
system.switch_cpus_1.commit.committed_per_cycle::max_value            8                       # Number of insts commited each cycle
system.switch_cpus_1.commit.committed_per_cycle::total    446169397                       # Number of insts commited each cycle
system.switch_cpus_1.commit.committedInsts    201218348                       # Number of instructions committed
system.switch_cpus_1.commit.committedOps    201218348                       # Number of ops (including micro ops) committed
system.switch_cpus_1.commit.swp_count               0                       # Number of s/w prefetches committed
system.switch_cpus_1.commit.refs             51662749                       # Number of memory references committed
system.switch_cpus_1.commit.loads            39671713                       # Number of loads committed
system.switch_cpus_1.commit.membars               102                       # Number of memory barriers committed
system.switch_cpus_1.commit.branches         28384894                       # Number of branches committed
system.switch_cpus_1.commit.fp_insts         51627815                       # Number of committed floating point instructions.
system.switch_cpus_1.commit.int_insts       168624392                       # Number of committed integer instructions.
system.switch_cpus_1.commit.function_calls       460018                       # Number of function calls committed.
system.switch_cpus_1.commit.op_class_0::No_OpClass      1218344      0.61%      0.61% # Class of committed instruction
system.switch_cpus_1.commit.op_class_0::IntAlu    117264313     58.28%     58.88% # Class of committed instruction
system.switch_cpus_1.commit.op_class_0::IntMult       166526      0.08%     58.97% # Class of committed instruction
system.switch_cpus_1.commit.op_class_0::IntDiv            0      0.00%     58.97% # Class of committed instruction
system.switch_cpus_1.commit.op_class_0::FloatAdd     18908760      9.40%     68.36% # Class of committed instruction
system.switch_cpus_1.commit.op_class_0::FloatCmp     10580725      5.26%     73.62% # Class of committed instruction
system.switch_cpus_1.commit.op_class_0::FloatCvt         1376      0.00%     73.62% # Class of committed instruction
system.switch_cpus_1.commit.op_class_0::FloatMult       880508      0.44%     74.06% # Class of committed instruction
system.switch_cpus_1.commit.op_class_0::FloatMultAcc            0      0.00%     74.06% # Class of committed instruction
system.switch_cpus_1.commit.op_class_0::FloatDiv       534945      0.27%     74.32% # Class of committed instruction
system.switch_cpus_1.commit.op_class_0::FloatMisc            0      0.00%     74.32% # Class of committed instruction
system.switch_cpus_1.commit.op_class_0::FloatSqrt            0      0.00%     74.32% # Class of committed instruction
system.switch_cpus_1.commit.op_class_0::SimdAdd            0      0.00%     74.32% # Class of committed instruction
system.switch_cpus_1.commit.op_class_0::SimdAddAcc            0      0.00%     74.32% # Class of committed instruction
system.switch_cpus_1.commit.op_class_0::SimdAlu            0      0.00%     74.32% # Class of committed instruction
system.switch_cpus_1.commit.op_class_0::SimdCmp            0      0.00%     74.32% # Class of committed instruction
system.switch_cpus_1.commit.op_class_0::SimdCvt            0      0.00%     74.32% # Class of committed instruction
system.switch_cpus_1.commit.op_class_0::SimdMisc            0      0.00%     74.32% # Class of committed instruction
system.switch_cpus_1.commit.op_class_0::SimdMult            0      0.00%     74.32% # Class of committed instruction
system.switch_cpus_1.commit.op_class_0::SimdMultAcc            0      0.00%     74.32% # Class of committed instruction
system.switch_cpus_1.commit.op_class_0::SimdShift            0      0.00%     74.32% # Class of committed instruction
system.switch_cpus_1.commit.op_class_0::SimdShiftAcc            0      0.00%     74.32% # Class of committed instruction
system.switch_cpus_1.commit.op_class_0::SimdSqrt            0      0.00%     74.32% # Class of committed instruction
system.switch_cpus_1.commit.op_class_0::SimdFloatAdd            0      0.00%     74.32% # Class of committed instruction
system.switch_cpus_1.commit.op_class_0::SimdFloatAlu            0      0.00%     74.32% # Class of committed instruction
system.switch_cpus_1.commit.op_class_0::SimdFloatCmp            0      0.00%     74.32% # Class of committed instruction
system.switch_cpus_1.commit.op_class_0::SimdFloatCvt            0      0.00%     74.32% # Class of committed instruction
system.switch_cpus_1.commit.op_class_0::SimdFloatDiv            0      0.00%     74.32% # Class of committed instruction
system.switch_cpus_1.commit.op_class_0::SimdFloatMisc            0      0.00%     74.32% # Class of committed instruction
system.switch_cpus_1.commit.op_class_0::SimdFloatMult            0      0.00%     74.32% # Class of committed instruction
system.switch_cpus_1.commit.op_class_0::SimdFloatMultAcc            0      0.00%     74.32% # Class of committed instruction
system.switch_cpus_1.commit.op_class_0::SimdFloatSqrt            0      0.00%     74.32% # Class of committed instruction
system.switch_cpus_1.commit.op_class_0::MemRead     20146501     10.01%     84.34% # Class of committed instruction
system.switch_cpus_1.commit.op_class_0::MemWrite     10794849      5.36%     89.70% # Class of committed instruction
system.switch_cpus_1.commit.op_class_0::FloatMemRead     19525314      9.70%     99.41% # Class of committed instruction
system.switch_cpus_1.commit.op_class_0::FloatMemWrite      1196187      0.59%    100.00% # Class of committed instruction
system.switch_cpus_1.commit.op_class_0::IprAccess            0      0.00%    100.00% # Class of committed instruction
system.switch_cpus_1.commit.op_class_0::InstPrefetch            0      0.00%    100.00% # Class of committed instruction
system.switch_cpus_1.commit.op_class_0::total    201218348                       # Class of committed instruction
system.switch_cpus_1.commit.bw_lim_events     19167915                       # number cycles where commit BW limit reached
system.switch_cpus_1.rob.rob_reads          709855026                       # The number of ROB reads
system.switch_cpus_1.rob.rob_writes         587198149                       # The number of ROB writes
system.switch_cpus_1.timesIdled                  2045                       # Number of times that the entire CPU went into an idle state and unscheduled itself
system.switch_cpus_1.idleCycles                217565                       # Total number of cycles that the CPU has spent unscheduled due to idling
system.switch_cpus_1.committedInsts         200000004                       # Number of Instructions Simulated
system.switch_cpus_1.committedOps           200000004                       # Number of Ops (including micro ops) Simulated
system.switch_cpus_1.cpi                     2.291632                       # CPI: Cycles Per Instruction
system.switch_cpus_1.cpi_total               2.291632                       # CPI: Total CPI of All Threads
system.switch_cpus_1.ipc                     0.436370                       # IPC: Instructions Per Cycle
system.switch_cpus_1.ipc_total               0.436370                       # IPC: Total IPC of All Threads
system.switch_cpus_1.int_regfile_reads      353951111                       # number of integer regfile reads
system.switch_cpus_1.int_regfile_writes     160251051                       # number of integer regfile writes
system.switch_cpus_1.fp_regfile_reads        59506732                       # number of floating regfile reads
system.switch_cpus_1.fp_regfile_writes       46520152                       # number of floating regfile writes
system.switch_cpus_1.misc_regfile_reads           243                       # number of misc regfile reads
system.switch_cpus_1.misc_regfile_writes          204                       # number of misc regfile writes
system.tol3bus.snoop_filter.tot_requests     51976333                       # Total number of requests made to the snoop filter.
system.tol3bus.snoop_filter.hit_single_requests     25985940                       # Number of requests hitting in the snoop filter with a single holder of the requested data.
system.tol3bus.snoop_filter.hit_multi_requests            0                       # Number of requests hitting in the snoop filter with multiple (>1) holders of the requested data.
system.tol3bus.snoop_filter.tot_snoops         274833                       # Total number of snoops made to the snoop filter.
system.tol3bus.snoop_filter.hit_single_snoops       274833                       # Number of snoops hitting in the snoop filter with a single holder of the requested data.
system.tol3bus.snoop_filter.hit_multi_snoops            0                       # Number of snoops hitting in the snoop filter with multiple (>1) holders of the requested data.
system.tol3bus.pwrStateResidencyTicks::UNDEFINED 72472948404435                       # Cumulative time (in ticks) in various power states
system.tol3bus.trans_dist::ReadResp          19570510                       # Transaction distribution
system.tol3bus.trans_dist::WritebackDirty     17736118                       # Transaction distribution
system.tol3bus.trans_dist::CleanEvict        23033819                       # Transaction distribution
system.tol3bus.trans_dist::UpgradeReq              33                       # Transaction distribution
system.tol3bus.trans_dist::UpgradeResp             33                       # Transaction distribution
system.tol3bus.trans_dist::ReadExReq          6419883                       # Transaction distribution
system.tol3bus.trans_dist::ReadExResp         6419883                       # Transaction distribution
system.tol3bus.trans_dist::ReadSharedReq     19570510                       # Transaction distribution
system.tol3bus.pkt_count_system.cpu.l2.mem_side::system.l3.cpu_side     77966759                       # Packet count per connected master and slave (bytes)
system.tol3bus.pkt_size_system.cpu.l2.mem_side::system.l3.cpu_side   2469221440                       # Cumulative packet size per connected master and slave (bytes)
system.tol3bus.snoops                        14784030                       # Total snoops (count)
system.tol3bus.snoopTraffic                 329275264                       # Total snoop traffic (bytes)
system.tol3bus.snoop_fanout::samples         40774456                       # Request fanout histogram
system.tol3bus.snoop_fanout::mean            0.006740                       # Request fanout histogram
system.tol3bus.snoop_fanout::stdev           0.081822                       # Request fanout histogram
system.tol3bus.snoop_fanout::underflows             0      0.00%      0.00% # Request fanout histogram
system.tol3bus.snoop_fanout::0               40499623     99.33%     99.33% # Request fanout histogram
system.tol3bus.snoop_fanout::1                 274833      0.67%    100.00% # Request fanout histogram
system.tol3bus.snoop_fanout::overflows              0      0.00%    100.00% # Request fanout histogram
system.tol3bus.snoop_fanout::min_value              0                       # Request fanout histogram
system.tol3bus.snoop_fanout::max_value              1                       # Request fanout histogram
system.tol3bus.snoop_fanout::total           40774456                       # Request fanout histogram
system.tol3bus.reqLayer0.occupancy        21500985825                       # Layer occupancy (ticks)
system.tol3bus.reqLayer0.utilization              0.9                       # Layer utilization (%)
system.tol3bus.respLayer0.occupancy       17309612727                       # Layer occupancy (ticks)
system.tol3bus.respLayer0.utilization             0.7                       # Layer utilization (%)

---------- End Simulation Statistics   ----------
