
---------- Begin Simulation Statistics ----------
sim_seconds                                  1.779541                       # Number of seconds simulated
sim_ticks                                1779541218792                       # Number of ticks simulated
final_tick                               75049695019494                       # Number of ticks from beginning of simulation (restored from checkpoints and never reset)
sim_freq                                 1000000000000                       # Frequency of simulated ticks
host_inst_rate                                 488594                       # Simulator instruction rate (inst/s)
host_op_rate                                   488594                       # Simulator op (including micro ops) rate (op/s)
host_tick_rate                              724560903                       # Simulator tick rate (ticks/s)
host_mem_usage                                2403916                       # Number of bytes of host memory used
host_seconds                                  2456.03                       # Real time elapsed on the host
sim_insts                                  1200000010                       # Number of instructions simulated
sim_ops                                    1200000010                       # Number of ops (including micro ops) simulated
system.voltage_domain.voltage                       1                       # Voltage in Volts
system.clk_domain.clock                          1000                       # Clock period in ticks
system.mem_ctrls0.pwrStateResidencyTicks::UNDEFINED 75049695019494                       # Cumulative time (in ticks) in various power states
system.mem_ctrls0.bytes_read::cpu.inst            128                       # Number of bytes read from this memory
system.mem_ctrls0.bytes_read::cpu.data            192                       # Number of bytes read from this memory
system.mem_ctrls0.bytes_read::switch_cpus.inst        43968                       # Number of bytes read from this memory
system.mem_ctrls0.bytes_read::switch_cpus.data    232875840                       # Number of bytes read from this memory
system.mem_ctrls0.bytes_read::switch_cpus_1.inst         3392                       # Number of bytes read from this memory
system.mem_ctrls0.bytes_read::switch_cpus_1.data     40720448                       # Number of bytes read from this memory
system.mem_ctrls0.bytes_read::total         273643968                       # Number of bytes read from this memory
system.mem_ctrls0.bytes_inst_read::cpu.inst          128                       # Number of instructions bytes read from this memory
system.mem_ctrls0.bytes_inst_read::switch_cpus.inst        43968                       # Number of instructions bytes read from this memory
system.mem_ctrls0.bytes_inst_read::switch_cpus_1.inst         3392                       # Number of instructions bytes read from this memory
system.mem_ctrls0.bytes_inst_read::total        47488                       # Number of instructions bytes read from this memory
system.mem_ctrls0.bytes_written::writebacks     87281472                       # Number of bytes written to this memory
system.mem_ctrls0.bytes_written::total       87281472                       # Number of bytes written to this memory
system.mem_ctrls0.num_reads::cpu.inst               2                       # Number of read requests responded to by this memory
system.mem_ctrls0.num_reads::cpu.data               3                       # Number of read requests responded to by this memory
system.mem_ctrls0.num_reads::switch_cpus.inst          687                       # Number of read requests responded to by this memory
system.mem_ctrls0.num_reads::switch_cpus.data      3638685                       # Number of read requests responded to by this memory
system.mem_ctrls0.num_reads::switch_cpus_1.inst           53                       # Number of read requests responded to by this memory
system.mem_ctrls0.num_reads::switch_cpus_1.data       636257                       # Number of read requests responded to by this memory
system.mem_ctrls0.num_reads::total            4275687                       # Number of read requests responded to by this memory
system.mem_ctrls0.num_writes::writebacks      1363773                       # Number of write requests responded to by this memory
system.mem_ctrls0.num_writes::total           1363773                       # Number of write requests responded to by this memory
system.mem_ctrls0.bw_read::cpu.inst                72                       # Total read bandwidth from this memory (bytes/s)
system.mem_ctrls0.bw_read::cpu.data               108                       # Total read bandwidth from this memory (bytes/s)
system.mem_ctrls0.bw_read::switch_cpus.inst        24707                       # Total read bandwidth from this memory (bytes/s)
system.mem_ctrls0.bw_read::switch_cpus.data    130862852                       # Total read bandwidth from this memory (bytes/s)
system.mem_ctrls0.bw_read::switch_cpus_1.inst         1906                       # Total read bandwidth from this memory (bytes/s)
system.mem_ctrls0.bw_read::switch_cpus_1.data     22882554                       # Total read bandwidth from this memory (bytes/s)
system.mem_ctrls0.bw_read::total            153772200                       # Total read bandwidth from this memory (bytes/s)
system.mem_ctrls0.bw_inst_read::cpu.inst           72                       # Instruction read bandwidth from this memory (bytes/s)
system.mem_ctrls0.bw_inst_read::switch_cpus.inst        24707                       # Instruction read bandwidth from this memory (bytes/s)
system.mem_ctrls0.bw_inst_read::switch_cpus_1.inst         1906                       # Instruction read bandwidth from this memory (bytes/s)
system.mem_ctrls0.bw_inst_read::total           26686                       # Instruction read bandwidth from this memory (bytes/s)
system.mem_ctrls0.bw_write::writebacks       49047176                       # Write bandwidth from this memory (bytes/s)
system.mem_ctrls0.bw_write::total            49047176                       # Write bandwidth from this memory (bytes/s)
system.mem_ctrls0.bw_total::writebacks       49047176                       # Total bandwidth to/from this memory (bytes/s)
system.mem_ctrls0.bw_total::cpu.inst               72                       # Total bandwidth to/from this memory (bytes/s)
system.mem_ctrls0.bw_total::cpu.data              108                       # Total bandwidth to/from this memory (bytes/s)
system.mem_ctrls0.bw_total::switch_cpus.inst        24707                       # Total bandwidth to/from this memory (bytes/s)
system.mem_ctrls0.bw_total::switch_cpus.data    130862852                       # Total bandwidth to/from this memory (bytes/s)
system.mem_ctrls0.bw_total::switch_cpus_1.inst         1906                       # Total bandwidth to/from this memory (bytes/s)
system.mem_ctrls0.bw_total::switch_cpus_1.data     22882554                       # Total bandwidth to/from this memory (bytes/s)
system.mem_ctrls0.bw_total::total           202819376                       # Total bandwidth to/from this memory (bytes/s)
system.mem_ctrls0.readReqs                    4275689                       # Number of read requests accepted
system.mem_ctrls0.writeReqs                   1363773                       # Number of write requests accepted
system.mem_ctrls0.readBursts                  4275689                       # Number of DRAM read bursts, including those serviced by the write queue
system.mem_ctrls0.writeBursts                 1363773                       # Number of DRAM write bursts, including those merged in the write queue
system.mem_ctrls0.bytesReadDRAM             273605056                       # Total number of bytes read from DRAM
system.mem_ctrls0.bytesReadWrQ                  39040                       # Total number of bytes read from write queue
system.mem_ctrls0.bytesWritten               87279552                       # Total number of bytes written to DRAM
system.mem_ctrls0.bytesReadSys              273644096                       # Total read bytes from the system interface side
system.mem_ctrls0.bytesWrittenSys            87281472                       # Total written bytes from the system interface side
system.mem_ctrls0.servicedByWrQ                   610                       # Number of DRAM read bursts serviced by the write queue
system.mem_ctrls0.mergedWrBursts                    0                       # Number of DRAM write bursts merged with an existing one
system.mem_ctrls0.neitherReadNorWriteReqs            0                       # Number of requests that are neither read nor write
system.mem_ctrls0.perBankRdBursts::0           273118                       # Per bank write bursts
system.mem_ctrls0.perBankRdBursts::1           269499                       # Per bank write bursts
system.mem_ctrls0.perBankRdBursts::2           266738                       # Per bank write bursts
system.mem_ctrls0.perBankRdBursts::3           266989                       # Per bank write bursts
system.mem_ctrls0.perBankRdBursts::4           266837                       # Per bank write bursts
system.mem_ctrls0.perBankRdBursts::5           268460                       # Per bank write bursts
system.mem_ctrls0.perBankRdBursts::6           268455                       # Per bank write bursts
system.mem_ctrls0.perBankRdBursts::7           269132                       # Per bank write bursts
system.mem_ctrls0.perBankRdBursts::8           270954                       # Per bank write bursts
system.mem_ctrls0.perBankRdBursts::9           268137                       # Per bank write bursts
system.mem_ctrls0.perBankRdBursts::10          263030                       # Per bank write bursts
system.mem_ctrls0.perBankRdBursts::11          260371                       # Per bank write bursts
system.mem_ctrls0.perBankRdBursts::12          260304                       # Per bank write bursts
system.mem_ctrls0.perBankRdBursts::13          264438                       # Per bank write bursts
system.mem_ctrls0.perBankRdBursts::14          269273                       # Per bank write bursts
system.mem_ctrls0.perBankRdBursts::15          269344                       # Per bank write bursts
system.mem_ctrls0.perBankWrBursts::0            87960                       # Per bank write bursts
system.mem_ctrls0.perBankWrBursts::1            86369                       # Per bank write bursts
system.mem_ctrls0.perBankWrBursts::2            85790                       # Per bank write bursts
system.mem_ctrls0.perBankWrBursts::3            86626                       # Per bank write bursts
system.mem_ctrls0.perBankWrBursts::4            87167                       # Per bank write bursts
system.mem_ctrls0.perBankWrBursts::5            87088                       # Per bank write bursts
system.mem_ctrls0.perBankWrBursts::6            84685                       # Per bank write bursts
system.mem_ctrls0.perBankWrBursts::7            83890                       # Per bank write bursts
system.mem_ctrls0.perBankWrBursts::8            84350                       # Per bank write bursts
system.mem_ctrls0.perBankWrBursts::9            84523                       # Per bank write bursts
system.mem_ctrls0.perBankWrBursts::10           84007                       # Per bank write bursts
system.mem_ctrls0.perBankWrBursts::11           82984                       # Per bank write bursts
system.mem_ctrls0.perBankWrBursts::12           82442                       # Per bank write bursts
system.mem_ctrls0.perBankWrBursts::13           83550                       # Per bank write bursts
system.mem_ctrls0.perBankWrBursts::14           86043                       # Per bank write bursts
system.mem_ctrls0.perBankWrBursts::15           86269                       # Per bank write bursts
system.mem_ctrls0.numRdRetry                        0                       # Number of times read queue was full causing retry
system.mem_ctrls0.numWrRetry                        0                       # Number of times write queue was full causing retry
system.mem_ctrls0.totGap                 1779541104408                       # Total gap between requests
system.mem_ctrls0.readPktSize::0                    0                       # Read request sizes (log2)
system.mem_ctrls0.readPktSize::1                    0                       # Read request sizes (log2)
system.mem_ctrls0.readPktSize::2                    0                       # Read request sizes (log2)
system.mem_ctrls0.readPktSize::3                    0                       # Read request sizes (log2)
system.mem_ctrls0.readPktSize::4                    0                       # Read request sizes (log2)
system.mem_ctrls0.readPktSize::5                    0                       # Read request sizes (log2)
system.mem_ctrls0.readPktSize::6              4275689                       # Read request sizes (log2)
system.mem_ctrls0.writePktSize::0                   0                       # Write request sizes (log2)
system.mem_ctrls0.writePktSize::1                   0                       # Write request sizes (log2)
system.mem_ctrls0.writePktSize::2                   0                       # Write request sizes (log2)
system.mem_ctrls0.writePktSize::3                   0                       # Write request sizes (log2)
system.mem_ctrls0.writePktSize::4                   0                       # Write request sizes (log2)
system.mem_ctrls0.writePktSize::5                   0                       # Write request sizes (log2)
system.mem_ctrls0.writePktSize::6             1363773                       # Write request sizes (log2)
system.mem_ctrls0.rdQLenPdf::0                4079952                       # What read queue length does an incoming req see
system.mem_ctrls0.rdQLenPdf::1                 155171                       # What read queue length does an incoming req see
system.mem_ctrls0.rdQLenPdf::2                  37015                       # What read queue length does an incoming req see
system.mem_ctrls0.rdQLenPdf::3                   2940                       # What read queue length does an incoming req see
system.mem_ctrls0.rdQLenPdf::4                      1                       # What read queue length does an incoming req see
system.mem_ctrls0.rdQLenPdf::5                      0                       # What read queue length does an incoming req see
system.mem_ctrls0.rdQLenPdf::6                      0                       # What read queue length does an incoming req see
system.mem_ctrls0.rdQLenPdf::7                      0                       # What read queue length does an incoming req see
system.mem_ctrls0.rdQLenPdf::8                      0                       # What read queue length does an incoming req see
system.mem_ctrls0.rdQLenPdf::9                      0                       # What read queue length does an incoming req see
system.mem_ctrls0.rdQLenPdf::10                     0                       # What read queue length does an incoming req see
system.mem_ctrls0.rdQLenPdf::11                     0                       # What read queue length does an incoming req see
system.mem_ctrls0.rdQLenPdf::12                     0                       # What read queue length does an incoming req see
system.mem_ctrls0.rdQLenPdf::13                     0                       # What read queue length does an incoming req see
system.mem_ctrls0.rdQLenPdf::14                     0                       # What read queue length does an incoming req see
system.mem_ctrls0.rdQLenPdf::15                     0                       # What read queue length does an incoming req see
system.mem_ctrls0.rdQLenPdf::16                     0                       # What read queue length does an incoming req see
system.mem_ctrls0.rdQLenPdf::17                     0                       # What read queue length does an incoming req see
system.mem_ctrls0.rdQLenPdf::18                     0                       # What read queue length does an incoming req see
system.mem_ctrls0.rdQLenPdf::19                     0                       # What read queue length does an incoming req see
system.mem_ctrls0.rdQLenPdf::20                     0                       # What read queue length does an incoming req see
system.mem_ctrls0.rdQLenPdf::21                     0                       # What read queue length does an incoming req see
system.mem_ctrls0.rdQLenPdf::22                     0                       # What read queue length does an incoming req see
system.mem_ctrls0.rdQLenPdf::23                     0                       # What read queue length does an incoming req see
system.mem_ctrls0.rdQLenPdf::24                     0                       # What read queue length does an incoming req see
system.mem_ctrls0.rdQLenPdf::25                     0                       # What read queue length does an incoming req see
system.mem_ctrls0.rdQLenPdf::26                     0                       # What read queue length does an incoming req see
system.mem_ctrls0.rdQLenPdf::27                     0                       # What read queue length does an incoming req see
system.mem_ctrls0.rdQLenPdf::28                     0                       # What read queue length does an incoming req see
system.mem_ctrls0.rdQLenPdf::29                     0                       # What read queue length does an incoming req see
system.mem_ctrls0.rdQLenPdf::30                     0                       # What read queue length does an incoming req see
system.mem_ctrls0.rdQLenPdf::31                     0                       # What read queue length does an incoming req see
system.mem_ctrls0.wrQLenPdf::0                      2                       # What write queue length does an incoming req see
system.mem_ctrls0.wrQLenPdf::1                      2                       # What write queue length does an incoming req see
system.mem_ctrls0.wrQLenPdf::2                      2                       # What write queue length does an incoming req see
system.mem_ctrls0.wrQLenPdf::3                      2                       # What write queue length does an incoming req see
system.mem_ctrls0.wrQLenPdf::4                      2                       # What write queue length does an incoming req see
system.mem_ctrls0.wrQLenPdf::5                      2                       # What write queue length does an incoming req see
system.mem_ctrls0.wrQLenPdf::6                      2                       # What write queue length does an incoming req see
system.mem_ctrls0.wrQLenPdf::7                      2                       # What write queue length does an incoming req see
system.mem_ctrls0.wrQLenPdf::8                      2                       # What write queue length does an incoming req see
system.mem_ctrls0.wrQLenPdf::9                      2                       # What write queue length does an incoming req see
system.mem_ctrls0.wrQLenPdf::10                     2                       # What write queue length does an incoming req see
system.mem_ctrls0.wrQLenPdf::11                     2                       # What write queue length does an incoming req see
system.mem_ctrls0.wrQLenPdf::12                     2                       # What write queue length does an incoming req see
system.mem_ctrls0.wrQLenPdf::13                     2                       # What write queue length does an incoming req see
system.mem_ctrls0.wrQLenPdf::14                     2                       # What write queue length does an incoming req see
system.mem_ctrls0.wrQLenPdf::15                 39533                       # What write queue length does an incoming req see
system.mem_ctrls0.wrQLenPdf::16                 41238                       # What write queue length does an incoming req see
system.mem_ctrls0.wrQLenPdf::17                 74864                       # What write queue length does an incoming req see
system.mem_ctrls0.wrQLenPdf::18                 79421                       # What write queue length does an incoming req see
system.mem_ctrls0.wrQLenPdf::19                 80378                       # What write queue length does an incoming req see
system.mem_ctrls0.wrQLenPdf::20                 80534                       # What write queue length does an incoming req see
system.mem_ctrls0.wrQLenPdf::21                 80602                       # What write queue length does an incoming req see
system.mem_ctrls0.wrQLenPdf::22                 80579                       # What write queue length does an incoming req see
system.mem_ctrls0.wrQLenPdf::23                 80637                       # What write queue length does an incoming req see
system.mem_ctrls0.wrQLenPdf::24                 80673                       # What write queue length does an incoming req see
system.mem_ctrls0.wrQLenPdf::25                 80726                       # What write queue length does an incoming req see
system.mem_ctrls0.wrQLenPdf::26                 80694                       # What write queue length does an incoming req see
system.mem_ctrls0.wrQLenPdf::27                 80748                       # What write queue length does an incoming req see
system.mem_ctrls0.wrQLenPdf::28                 80966                       # What write queue length does an incoming req see
system.mem_ctrls0.wrQLenPdf::29                 81197                       # What write queue length does an incoming req see
system.mem_ctrls0.wrQLenPdf::30                 80699                       # What write queue length does an incoming req see
system.mem_ctrls0.wrQLenPdf::31                 80149                       # What write queue length does an incoming req see
system.mem_ctrls0.wrQLenPdf::32                 80015                       # What write queue length does an incoming req see
system.mem_ctrls0.wrQLenPdf::33                    80                       # What write queue length does an incoming req see
system.mem_ctrls0.wrQLenPdf::34                    10                       # What write queue length does an incoming req see
system.mem_ctrls0.wrQLenPdf::35                     0                       # What write queue length does an incoming req see
system.mem_ctrls0.wrQLenPdf::36                     0                       # What write queue length does an incoming req see
system.mem_ctrls0.wrQLenPdf::37                     0                       # What write queue length does an incoming req see
system.mem_ctrls0.wrQLenPdf::38                     0                       # What write queue length does an incoming req see
system.mem_ctrls0.wrQLenPdf::39                     0                       # What write queue length does an incoming req see
system.mem_ctrls0.wrQLenPdf::40                     0                       # What write queue length does an incoming req see
system.mem_ctrls0.wrQLenPdf::41                     0                       # What write queue length does an incoming req see
system.mem_ctrls0.wrQLenPdf::42                     0                       # What write queue length does an incoming req see
system.mem_ctrls0.wrQLenPdf::43                     0                       # What write queue length does an incoming req see
system.mem_ctrls0.wrQLenPdf::44                     0                       # What write queue length does an incoming req see
system.mem_ctrls0.wrQLenPdf::45                     0                       # What write queue length does an incoming req see
system.mem_ctrls0.wrQLenPdf::46                     0                       # What write queue length does an incoming req see
system.mem_ctrls0.wrQLenPdf::47                     0                       # What write queue length does an incoming req see
system.mem_ctrls0.wrQLenPdf::48                     0                       # What write queue length does an incoming req see
system.mem_ctrls0.wrQLenPdf::49                     0                       # What write queue length does an incoming req see
system.mem_ctrls0.wrQLenPdf::50                     0                       # What write queue length does an incoming req see
system.mem_ctrls0.wrQLenPdf::51                     0                       # What write queue length does an incoming req see
system.mem_ctrls0.wrQLenPdf::52                     0                       # What write queue length does an incoming req see
system.mem_ctrls0.wrQLenPdf::53                     0                       # What write queue length does an incoming req see
system.mem_ctrls0.wrQLenPdf::54                     0                       # What write queue length does an incoming req see
system.mem_ctrls0.wrQLenPdf::55                     0                       # What write queue length does an incoming req see
system.mem_ctrls0.wrQLenPdf::56                     0                       # What write queue length does an incoming req see
system.mem_ctrls0.wrQLenPdf::57                     0                       # What write queue length does an incoming req see
system.mem_ctrls0.wrQLenPdf::58                     0                       # What write queue length does an incoming req see
system.mem_ctrls0.wrQLenPdf::59                     0                       # What write queue length does an incoming req see
system.mem_ctrls0.wrQLenPdf::60                     0                       # What write queue length does an incoming req see
system.mem_ctrls0.wrQLenPdf::61                     0                       # What write queue length does an incoming req see
system.mem_ctrls0.wrQLenPdf::62                     0                       # What write queue length does an incoming req see
system.mem_ctrls0.wrQLenPdf::63                     0                       # What write queue length does an incoming req see
system.mem_ctrls0.bytesPerActivate::samples      2542279                       # Bytes accessed per row activation
system.mem_ctrls0.bytesPerActivate::mean   141.952030                       # Bytes accessed per row activation
system.mem_ctrls0.bytesPerActivate::gmean   107.248993                       # Bytes accessed per row activation
system.mem_ctrls0.bytesPerActivate::stdev   142.857342                       # Bytes accessed per row activation
system.mem_ctrls0.bytesPerActivate::0-127      1352826     53.21%     53.21% # Bytes accessed per row activation
system.mem_ctrls0.bytesPerActivate::128-255       838997     33.00%     86.21% # Bytes accessed per row activation
system.mem_ctrls0.bytesPerActivate::256-383       147247      5.79%     92.01% # Bytes accessed per row activation
system.mem_ctrls0.bytesPerActivate::384-511        72251      2.84%     94.85% # Bytes accessed per row activation
system.mem_ctrls0.bytesPerActivate::512-639        68616      2.70%     97.55% # Bytes accessed per row activation
system.mem_ctrls0.bytesPerActivate::640-767        27935      1.10%     98.65% # Bytes accessed per row activation
system.mem_ctrls0.bytesPerActivate::768-895        21585      0.85%     99.50% # Bytes accessed per row activation
system.mem_ctrls0.bytesPerActivate::896-1023         6744      0.27%     99.76% # Bytes accessed per row activation
system.mem_ctrls0.bytesPerActivate::1024-1151         6078      0.24%    100.00% # Bytes accessed per row activation
system.mem_ctrls0.bytesPerActivate::total      2542279                       # Bytes accessed per row activation
system.mem_ctrls0.rdPerTurnAround::samples        79949                       # Reads before turning the bus around for writes
system.mem_ctrls0.rdPerTurnAround::mean     53.471801                       # Reads before turning the bus around for writes
system.mem_ctrls0.rdPerTurnAround::gmean    47.805099                       # Reads before turning the bus around for writes
system.mem_ctrls0.rdPerTurnAround::stdev   114.577457                       # Reads before turning the bus around for writes
system.mem_ctrls0.rdPerTurnAround::0-1023        79948    100.00%    100.00% # Reads before turning the bus around for writes
system.mem_ctrls0.rdPerTurnAround::30720-31743            1      0.00%    100.00% # Reads before turning the bus around for writes
system.mem_ctrls0.rdPerTurnAround::total        79949                       # Reads before turning the bus around for writes
system.mem_ctrls0.wrPerTurnAround::samples        79949                       # Writes before turning the bus around for reads
system.mem_ctrls0.wrPerTurnAround::mean     17.057662                       # Writes before turning the bus around for reads
system.mem_ctrls0.wrPerTurnAround::gmean    17.024598                       # Writes before turning the bus around for reads
system.mem_ctrls0.wrPerTurnAround::stdev     1.064948                       # Writes before turning the bus around for reads
system.mem_ctrls0.wrPerTurnAround::16           38971     48.74%     48.74% # Writes before turning the bus around for reads
system.mem_ctrls0.wrPerTurnAround::17            1216      1.52%     50.27% # Writes before turning the bus around for reads
system.mem_ctrls0.wrPerTurnAround::18           36268     45.36%     95.63% # Writes before turning the bus around for reads
system.mem_ctrls0.wrPerTurnAround::19            3206      4.01%     99.64% # Writes before turning the bus around for reads
system.mem_ctrls0.wrPerTurnAround::20             256      0.32%     99.96% # Writes before turning the bus around for reads
system.mem_ctrls0.wrPerTurnAround::21              30      0.04%    100.00% # Writes before turning the bus around for reads
system.mem_ctrls0.wrPerTurnAround::22               1      0.00%    100.00% # Writes before turning the bus around for reads
system.mem_ctrls0.wrPerTurnAround::25               1      0.00%    100.00% # Writes before turning the bus around for reads
system.mem_ctrls0.wrPerTurnAround::total        79949                       # Writes before turning the bus around for reads
system.mem_ctrls0.totQLat                 94341097392                       # Total ticks spent queuing
system.mem_ctrls0.totMemAccLat           174498828642                       # Total ticks spent from burst creation until serviced by the DRAM
system.mem_ctrls0.totBusLat               21375395000                       # Total ticks spent in databus transfers
system.mem_ctrls0.avgQLat                    22067.69                       # Average queueing delay per DRAM burst
system.mem_ctrls0.avgBusLat                   5000.00                       # Average bus latency per DRAM burst
system.mem_ctrls0.avgMemAccLat               40817.69                       # Average memory access latency per DRAM burst
system.mem_ctrls0.avgRdBW                      153.75                       # Average DRAM read bandwidth in MiByte/s
system.mem_ctrls0.avgWrBW                       49.05                       # Average achieved write bandwidth in MiByte/s
system.mem_ctrls0.avgRdBWSys                   153.77                       # Average system read bandwidth in MiByte/s
system.mem_ctrls0.avgWrBWSys                    49.05                       # Average system write bandwidth in MiByte/s
system.mem_ctrls0.peakBW                     12800.00                       # Theoretical peak bandwidth in MiByte/s
system.mem_ctrls0.busUtil                        1.58                       # Data bus utilization in percentage
system.mem_ctrls0.busUtilRead                    1.20                       # Data bus utilization in percentage for reads
system.mem_ctrls0.busUtilWrite                   0.38                       # Data bus utilization in percentage for writes
system.mem_ctrls0.avgRdQLen                      1.02                       # Average read queue length when enqueuing
system.mem_ctrls0.avgWrQLen                     24.57                       # Average write queue length when enqueuing
system.mem_ctrls0.readRowHits                 2672504                       # Number of row buffer hits during reads
system.mem_ctrls0.writeRowHits                 424030                       # Number of row buffer hits during writes
system.mem_ctrls0.readRowHitRate                62.51                       # Row buffer hit rate for reads
system.mem_ctrls0.writeRowHitRate               31.09                       # Row buffer hit rate for writes
system.mem_ctrls0.avgGap                    315551.57                       # Average gap between requests
system.mem_ctrls0.pageHitRate                   54.91                       # Row buffer hit rate, read and write combined
system.mem_ctrls0_0.actEnergy              9136265460                       # Energy for activate commands per rank (pJ)
system.mem_ctrls0_0.preEnergy              4856017485                       # Energy for precharge commands per rank (pJ)
system.mem_ctrls0_0.readEnergy            15345487920                       # Energy for read commands per rank (pJ)
system.mem_ctrls0_0.writeEnergy            3599581500                       # Energy for write commands per rank (pJ)
system.mem_ctrls0_0.refreshEnergy        138661554720.000031                       # Energy for refresh commands per rank (pJ)
system.mem_ctrls0_0.actBackEnergy         90141891330                       # Energy for active background per rank (pJ)
system.mem_ctrls0_0.preBackEnergy          5027728800                       # Energy for precharge background per rank (pJ)
system.mem_ctrls0_0.actPowerDownEnergy   531007908540                       # Energy for active power-down per rank (pJ)
system.mem_ctrls0_0.prePowerDownEnergy   105971906880                       # Energy for precharge power-down per rank (pJ)
system.mem_ctrls0_0.selfRefreshEnergy     38826112005                       # Energy for self refresh per rank (pJ)
system.mem_ctrls0_0.totalEnergy          942608148030                       # Total energy per rank (pJ)
system.mem_ctrls0_0.averagePower           529.691658                       # Core power per rank (mW)
system.mem_ctrls0_0.totalIdleTime        1568693203168                       # Total Idle time Per DRAM Rank
system.mem_ctrls0_0.memoryStateTime::IDLE   5142374845                       # Time in different power states
system.mem_ctrls0_0.memoryStateTime::REF  58747112000                       # Time in different power states
system.mem_ctrls0_0.memoryStateTime::SREF 128234085713                       # Time in different power states
system.mem_ctrls0_0.memoryStateTime::PRE_PDN 275969824803                       # Time in different power states
system.mem_ctrls0_0.memoryStateTime::ACT 146958528779                       # Time in different power states
system.mem_ctrls0_0.memoryStateTime::ACT_PDN 1164489292652                       # Time in different power states
system.mem_ctrls0_1.actEnergy              9015670860                       # Energy for activate commands per rank (pJ)
system.mem_ctrls0_1.preEnergy              4791931320                       # Energy for precharge commands per rank (pJ)
system.mem_ctrls0_1.readEnergy            15178569000                       # Energy for read commands per rank (pJ)
system.mem_ctrls0_1.writeEnergy            3519156960                       # Energy for write commands per rank (pJ)
system.mem_ctrls0_1.refreshEnergy        138172915920.000031                       # Energy for refresh commands per rank (pJ)
system.mem_ctrls0_1.actBackEnergy         90276865620                       # Energy for active background per rank (pJ)
system.mem_ctrls0_1.preBackEnergy          5059274880                       # Energy for precharge background per rank (pJ)
system.mem_ctrls0_1.actPowerDownEnergy   526417869540                       # Energy for active power-down per rank (pJ)
system.mem_ctrls0_1.prePowerDownEnergy   106395571680                       # Energy for precharge power-down per rank (pJ)
system.mem_ctrls0_1.selfRefreshEnergy     41068471080                       # Energy for self refresh per rank (pJ)
system.mem_ctrls0_1.totalEnergy          939930468930                       # Total energy per rank (pJ)
system.mem_ctrls0_1.averagePower           528.186954                       # Core power per rank (mW)
system.mem_ctrls0_1.totalIdleTime        1568315094676                       # Total Idle time Per DRAM Rank
system.mem_ctrls0_1.memoryStateTime::IDLE   5259203524                       # Time in different power states
system.mem_ctrls0_1.memoryStateTime::REF  58542524000                       # Time in different power states
system.mem_ctrls0_1.memoryStateTime::SREF 136817464820                       # Time in different power states
system.mem_ctrls0_1.memoryStateTime::PRE_PDN 277073891672                       # Time in different power states
system.mem_ctrls0_1.memoryStateTime::ACT 147424396592                       # Time in different power states
system.mem_ctrls0_1.memoryStateTime::ACT_PDN 1154423738184                       # Time in different power states
system.mem_ctrls1.pwrStateResidencyTicks::UNDEFINED 75049695019494                       # Cumulative time (in ticks) in various power states
system.mem_ctrls1.bytes_read::cpu.inst            128                       # Number of bytes read from this memory
system.mem_ctrls1.bytes_read::cpu.data            192                       # Number of bytes read from this memory
system.mem_ctrls1.bytes_read::switch_cpus.inst        43840                       # Number of bytes read from this memory
system.mem_ctrls1.bytes_read::switch_cpus.data    232801920                       # Number of bytes read from this memory
system.mem_ctrls1.bytes_read::switch_cpus_1.inst         3200                       # Number of bytes read from this memory
system.mem_ctrls1.bytes_read::switch_cpus_1.data     40765760                       # Number of bytes read from this memory
system.mem_ctrls1.bytes_read::total         273615040                       # Number of bytes read from this memory
system.mem_ctrls1.bytes_inst_read::cpu.inst          128                       # Number of instructions bytes read from this memory
system.mem_ctrls1.bytes_inst_read::switch_cpus.inst        43840                       # Number of instructions bytes read from this memory
system.mem_ctrls1.bytes_inst_read::switch_cpus_1.inst         3200                       # Number of instructions bytes read from this memory
system.mem_ctrls1.bytes_inst_read::total        47168                       # Number of instructions bytes read from this memory
system.mem_ctrls1.bytes_written::writebacks     87287680                       # Number of bytes written to this memory
system.mem_ctrls1.bytes_written::total       87287680                       # Number of bytes written to this memory
system.mem_ctrls1.num_reads::cpu.inst               2                       # Number of read requests responded to by this memory
system.mem_ctrls1.num_reads::cpu.data               3                       # Number of read requests responded to by this memory
system.mem_ctrls1.num_reads::switch_cpus.inst          685                       # Number of read requests responded to by this memory
system.mem_ctrls1.num_reads::switch_cpus.data      3637530                       # Number of read requests responded to by this memory
system.mem_ctrls1.num_reads::switch_cpus_1.inst           50                       # Number of read requests responded to by this memory
system.mem_ctrls1.num_reads::switch_cpus_1.data       636965                       # Number of read requests responded to by this memory
system.mem_ctrls1.num_reads::total            4275235                       # Number of read requests responded to by this memory
system.mem_ctrls1.num_writes::writebacks      1363870                       # Number of write requests responded to by this memory
system.mem_ctrls1.num_writes::total           1363870                       # Number of write requests responded to by this memory
system.mem_ctrls1.bw_read::cpu.inst                72                       # Total read bandwidth from this memory (bytes/s)
system.mem_ctrls1.bw_read::cpu.data               108                       # Total read bandwidth from this memory (bytes/s)
system.mem_ctrls1.bw_read::switch_cpus.inst        24636                       # Total read bandwidth from this memory (bytes/s)
system.mem_ctrls1.bw_read::switch_cpus.data    130821314                       # Total read bandwidth from this memory (bytes/s)
system.mem_ctrls1.bw_read::switch_cpus_1.inst         1798                       # Total read bandwidth from this memory (bytes/s)
system.mem_ctrls1.bw_read::switch_cpus_1.data     22908017                       # Total read bandwidth from this memory (bytes/s)
system.mem_ctrls1.bw_read::total            153755944                       # Total read bandwidth from this memory (bytes/s)
system.mem_ctrls1.bw_inst_read::cpu.inst           72                       # Instruction read bandwidth from this memory (bytes/s)
system.mem_ctrls1.bw_inst_read::switch_cpus.inst        24636                       # Instruction read bandwidth from this memory (bytes/s)
system.mem_ctrls1.bw_inst_read::switch_cpus_1.inst         1798                       # Instruction read bandwidth from this memory (bytes/s)
system.mem_ctrls1.bw_inst_read::total           26506                       # Instruction read bandwidth from this memory (bytes/s)
system.mem_ctrls1.bw_write::writebacks       49050665                       # Write bandwidth from this memory (bytes/s)
system.mem_ctrls1.bw_write::total            49050665                       # Write bandwidth from this memory (bytes/s)
system.mem_ctrls1.bw_total::writebacks       49050665                       # Total bandwidth to/from this memory (bytes/s)
system.mem_ctrls1.bw_total::cpu.inst               72                       # Total bandwidth to/from this memory (bytes/s)
system.mem_ctrls1.bw_total::cpu.data              108                       # Total bandwidth to/from this memory (bytes/s)
system.mem_ctrls1.bw_total::switch_cpus.inst        24636                       # Total bandwidth to/from this memory (bytes/s)
system.mem_ctrls1.bw_total::switch_cpus.data    130821314                       # Total bandwidth to/from this memory (bytes/s)
system.mem_ctrls1.bw_total::switch_cpus_1.inst         1798                       # Total bandwidth to/from this memory (bytes/s)
system.mem_ctrls1.bw_total::switch_cpus_1.data     22908017                       # Total bandwidth to/from this memory (bytes/s)
system.mem_ctrls1.bw_total::total           202806609                       # Total bandwidth to/from this memory (bytes/s)
system.mem_ctrls1.readReqs                    4275235                       # Number of read requests accepted
system.mem_ctrls1.writeReqs                   1363870                       # Number of write requests accepted
system.mem_ctrls1.readBursts                  4275235                       # Number of DRAM read bursts, including those serviced by the write queue
system.mem_ctrls1.writeBursts                 1363870                       # Number of DRAM write bursts, including those merged in the write queue
system.mem_ctrls1.bytesReadDRAM             273573376                       # Total number of bytes read from DRAM
system.mem_ctrls1.bytesReadWrQ                  41664                       # Total number of bytes read from write queue
system.mem_ctrls1.bytesWritten               87285632                       # Total number of bytes written to DRAM
system.mem_ctrls1.bytesReadSys              273615040                       # Total read bytes from the system interface side
system.mem_ctrls1.bytesWrittenSys            87287680                       # Total written bytes from the system interface side
system.mem_ctrls1.servicedByWrQ                   651                       # Number of DRAM read bursts serviced by the write queue
system.mem_ctrls1.mergedWrBursts                    0                       # Number of DRAM write bursts merged with an existing one
system.mem_ctrls1.neitherReadNorWriteReqs            0                       # Number of requests that are neither read nor write
system.mem_ctrls1.perBankRdBursts::0           273066                       # Per bank write bursts
system.mem_ctrls1.perBankRdBursts::1           269581                       # Per bank write bursts
system.mem_ctrls1.perBankRdBursts::2           266968                       # Per bank write bursts
system.mem_ctrls1.perBankRdBursts::3           266953                       # Per bank write bursts
system.mem_ctrls1.perBankRdBursts::4           266523                       # Per bank write bursts
system.mem_ctrls1.perBankRdBursts::5           268900                       # Per bank write bursts
system.mem_ctrls1.perBankRdBursts::6           268406                       # Per bank write bursts
system.mem_ctrls1.perBankRdBursts::7           269313                       # Per bank write bursts
system.mem_ctrls1.perBankRdBursts::8           270811                       # Per bank write bursts
system.mem_ctrls1.perBankRdBursts::9           267698                       # Per bank write bursts
system.mem_ctrls1.perBankRdBursts::10          263047                       # Per bank write bursts
system.mem_ctrls1.perBankRdBursts::11          260100                       # Per bank write bursts
system.mem_ctrls1.perBankRdBursts::12          259921                       # Per bank write bursts
system.mem_ctrls1.perBankRdBursts::13          264356                       # Per bank write bursts
system.mem_ctrls1.perBankRdBursts::14          269549                       # Per bank write bursts
system.mem_ctrls1.perBankRdBursts::15          269392                       # Per bank write bursts
system.mem_ctrls1.perBankWrBursts::0            87891                       # Per bank write bursts
system.mem_ctrls1.perBankWrBursts::1            86432                       # Per bank write bursts
system.mem_ctrls1.perBankWrBursts::2            85672                       # Per bank write bursts
system.mem_ctrls1.perBankWrBursts::3            86648                       # Per bank write bursts
system.mem_ctrls1.perBankWrBursts::4            87076                       # Per bank write bursts
system.mem_ctrls1.perBankWrBursts::5            87243                       # Per bank write bursts
system.mem_ctrls1.perBankWrBursts::6            84661                       # Per bank write bursts
system.mem_ctrls1.perBankWrBursts::7            83947                       # Per bank write bursts
system.mem_ctrls1.perBankWrBursts::8            84258                       # Per bank write bursts
system.mem_ctrls1.perBankWrBursts::9            84543                       # Per bank write bursts
system.mem_ctrls1.perBankWrBursts::10           84052                       # Per bank write bursts
system.mem_ctrls1.perBankWrBursts::11           83018                       # Per bank write bursts
system.mem_ctrls1.perBankWrBursts::12           82370                       # Per bank write bursts
system.mem_ctrls1.perBankWrBursts::13           83522                       # Per bank write bursts
system.mem_ctrls1.perBankWrBursts::14           86119                       # Per bank write bursts
system.mem_ctrls1.perBankWrBursts::15           86386                       # Per bank write bursts
system.mem_ctrls1.numRdRetry                        0                       # Number of times read queue was full causing retry
system.mem_ctrls1.numWrRetry                        0                       # Number of times write queue was full causing retry
system.mem_ctrls1.totGap                 1779541107237                       # Total gap between requests
system.mem_ctrls1.readPktSize::0                    0                       # Read request sizes (log2)
system.mem_ctrls1.readPktSize::1                    0                       # Read request sizes (log2)
system.mem_ctrls1.readPktSize::2                    0                       # Read request sizes (log2)
system.mem_ctrls1.readPktSize::3                    0                       # Read request sizes (log2)
system.mem_ctrls1.readPktSize::4                    0                       # Read request sizes (log2)
system.mem_ctrls1.readPktSize::5                    0                       # Read request sizes (log2)
system.mem_ctrls1.readPktSize::6              4275235                       # Read request sizes (log2)
system.mem_ctrls1.writePktSize::0                   0                       # Write request sizes (log2)
system.mem_ctrls1.writePktSize::1                   0                       # Write request sizes (log2)
system.mem_ctrls1.writePktSize::2                   0                       # Write request sizes (log2)
system.mem_ctrls1.writePktSize::3                   0                       # Write request sizes (log2)
system.mem_ctrls1.writePktSize::4                   0                       # Write request sizes (log2)
system.mem_ctrls1.writePktSize::5                   0                       # Write request sizes (log2)
system.mem_ctrls1.writePktSize::6             1363870                       # Write request sizes (log2)
system.mem_ctrls1.rdQLenPdf::0                4079030                       # What read queue length does an incoming req see
system.mem_ctrls1.rdQLenPdf::1                 155332                       # What read queue length does an incoming req see
system.mem_ctrls1.rdQLenPdf::2                  37286                       # What read queue length does an incoming req see
system.mem_ctrls1.rdQLenPdf::3                   2936                       # What read queue length does an incoming req see
system.mem_ctrls1.rdQLenPdf::4                      0                       # What read queue length does an incoming req see
system.mem_ctrls1.rdQLenPdf::5                      0                       # What read queue length does an incoming req see
system.mem_ctrls1.rdQLenPdf::6                      0                       # What read queue length does an incoming req see
system.mem_ctrls1.rdQLenPdf::7                      0                       # What read queue length does an incoming req see
system.mem_ctrls1.rdQLenPdf::8                      0                       # What read queue length does an incoming req see
system.mem_ctrls1.rdQLenPdf::9                      0                       # What read queue length does an incoming req see
system.mem_ctrls1.rdQLenPdf::10                     0                       # What read queue length does an incoming req see
system.mem_ctrls1.rdQLenPdf::11                     0                       # What read queue length does an incoming req see
system.mem_ctrls1.rdQLenPdf::12                     0                       # What read queue length does an incoming req see
system.mem_ctrls1.rdQLenPdf::13                     0                       # What read queue length does an incoming req see
system.mem_ctrls1.rdQLenPdf::14                     0                       # What read queue length does an incoming req see
system.mem_ctrls1.rdQLenPdf::15                     0                       # What read queue length does an incoming req see
system.mem_ctrls1.rdQLenPdf::16                     0                       # What read queue length does an incoming req see
system.mem_ctrls1.rdQLenPdf::17                     0                       # What read queue length does an incoming req see
system.mem_ctrls1.rdQLenPdf::18                     0                       # What read queue length does an incoming req see
system.mem_ctrls1.rdQLenPdf::19                     0                       # What read queue length does an incoming req see
system.mem_ctrls1.rdQLenPdf::20                     0                       # What read queue length does an incoming req see
system.mem_ctrls1.rdQLenPdf::21                     0                       # What read queue length does an incoming req see
system.mem_ctrls1.rdQLenPdf::22                     0                       # What read queue length does an incoming req see
system.mem_ctrls1.rdQLenPdf::23                     0                       # What read queue length does an incoming req see
system.mem_ctrls1.rdQLenPdf::24                     0                       # What read queue length does an incoming req see
system.mem_ctrls1.rdQLenPdf::25                     0                       # What read queue length does an incoming req see
system.mem_ctrls1.rdQLenPdf::26                     0                       # What read queue length does an incoming req see
system.mem_ctrls1.rdQLenPdf::27                     0                       # What read queue length does an incoming req see
system.mem_ctrls1.rdQLenPdf::28                     0                       # What read queue length does an incoming req see
system.mem_ctrls1.rdQLenPdf::29                     0                       # What read queue length does an incoming req see
system.mem_ctrls1.rdQLenPdf::30                     0                       # What read queue length does an incoming req see
system.mem_ctrls1.rdQLenPdf::31                     0                       # What read queue length does an incoming req see
system.mem_ctrls1.wrQLenPdf::0                      2                       # What write queue length does an incoming req see
system.mem_ctrls1.wrQLenPdf::1                      2                       # What write queue length does an incoming req see
system.mem_ctrls1.wrQLenPdf::2                      2                       # What write queue length does an incoming req see
system.mem_ctrls1.wrQLenPdf::3                      2                       # What write queue length does an incoming req see
system.mem_ctrls1.wrQLenPdf::4                      2                       # What write queue length does an incoming req see
system.mem_ctrls1.wrQLenPdf::5                      2                       # What write queue length does an incoming req see
system.mem_ctrls1.wrQLenPdf::6                      2                       # What write queue length does an incoming req see
system.mem_ctrls1.wrQLenPdf::7                      2                       # What write queue length does an incoming req see
system.mem_ctrls1.wrQLenPdf::8                      2                       # What write queue length does an incoming req see
system.mem_ctrls1.wrQLenPdf::9                      2                       # What write queue length does an incoming req see
system.mem_ctrls1.wrQLenPdf::10                     2                       # What write queue length does an incoming req see
system.mem_ctrls1.wrQLenPdf::11                     2                       # What write queue length does an incoming req see
system.mem_ctrls1.wrQLenPdf::12                     2                       # What write queue length does an incoming req see
system.mem_ctrls1.wrQLenPdf::13                     2                       # What write queue length does an incoming req see
system.mem_ctrls1.wrQLenPdf::14                     2                       # What write queue length does an incoming req see
system.mem_ctrls1.wrQLenPdf::15                 39311                       # What write queue length does an incoming req see
system.mem_ctrls1.wrQLenPdf::16                 41109                       # What write queue length does an incoming req see
system.mem_ctrls1.wrQLenPdf::17                 74924                       # What write queue length does an incoming req see
system.mem_ctrls1.wrQLenPdf::18                 79489                       # What write queue length does an incoming req see
system.mem_ctrls1.wrQLenPdf::19                 80437                       # What write queue length does an incoming req see
system.mem_ctrls1.wrQLenPdf::20                 80568                       # What write queue length does an incoming req see
system.mem_ctrls1.wrQLenPdf::21                 80671                       # What write queue length does an incoming req see
system.mem_ctrls1.wrQLenPdf::22                 80593                       # What write queue length does an incoming req see
system.mem_ctrls1.wrQLenPdf::23                 80623                       # What write queue length does an incoming req see
system.mem_ctrls1.wrQLenPdf::24                 80697                       # What write queue length does an incoming req see
system.mem_ctrls1.wrQLenPdf::25                 80702                       # What write queue length does an incoming req see
system.mem_ctrls1.wrQLenPdf::26                 80715                       # What write queue length does an incoming req see
system.mem_ctrls1.wrQLenPdf::27                 80744                       # What write queue length does an incoming req see
system.mem_ctrls1.wrQLenPdf::28                 81036                       # What write queue length does an incoming req see
system.mem_ctrls1.wrQLenPdf::29                 81299                       # What write queue length does an incoming req see
system.mem_ctrls1.wrQLenPdf::30                 80655                       # What write queue length does an incoming req see
system.mem_ctrls1.wrQLenPdf::31                 80148                       # What write queue length does an incoming req see
system.mem_ctrls1.wrQLenPdf::32                 80043                       # What write queue length does an incoming req see
system.mem_ctrls1.wrQLenPdf::33                    65                       # What write queue length does an incoming req see
system.mem_ctrls1.wrQLenPdf::34                     7                       # What write queue length does an incoming req see
system.mem_ctrls1.wrQLenPdf::35                     3                       # What write queue length does an incoming req see
system.mem_ctrls1.wrQLenPdf::36                     1                       # What write queue length does an incoming req see
system.mem_ctrls1.wrQLenPdf::37                     0                       # What write queue length does an incoming req see
system.mem_ctrls1.wrQLenPdf::38                     0                       # What write queue length does an incoming req see
system.mem_ctrls1.wrQLenPdf::39                     0                       # What write queue length does an incoming req see
system.mem_ctrls1.wrQLenPdf::40                     0                       # What write queue length does an incoming req see
system.mem_ctrls1.wrQLenPdf::41                     0                       # What write queue length does an incoming req see
system.mem_ctrls1.wrQLenPdf::42                     0                       # What write queue length does an incoming req see
system.mem_ctrls1.wrQLenPdf::43                     0                       # What write queue length does an incoming req see
system.mem_ctrls1.wrQLenPdf::44                     0                       # What write queue length does an incoming req see
system.mem_ctrls1.wrQLenPdf::45                     0                       # What write queue length does an incoming req see
system.mem_ctrls1.wrQLenPdf::46                     0                       # What write queue length does an incoming req see
system.mem_ctrls1.wrQLenPdf::47                     0                       # What write queue length does an incoming req see
system.mem_ctrls1.wrQLenPdf::48                     0                       # What write queue length does an incoming req see
system.mem_ctrls1.wrQLenPdf::49                     0                       # What write queue length does an incoming req see
system.mem_ctrls1.wrQLenPdf::50                     0                       # What write queue length does an incoming req see
system.mem_ctrls1.wrQLenPdf::51                     0                       # What write queue length does an incoming req see
system.mem_ctrls1.wrQLenPdf::52                     0                       # What write queue length does an incoming req see
system.mem_ctrls1.wrQLenPdf::53                     0                       # What write queue length does an incoming req see
system.mem_ctrls1.wrQLenPdf::54                     0                       # What write queue length does an incoming req see
system.mem_ctrls1.wrQLenPdf::55                     0                       # What write queue length does an incoming req see
system.mem_ctrls1.wrQLenPdf::56                     0                       # What write queue length does an incoming req see
system.mem_ctrls1.wrQLenPdf::57                     0                       # What write queue length does an incoming req see
system.mem_ctrls1.wrQLenPdf::58                     0                       # What write queue length does an incoming req see
system.mem_ctrls1.wrQLenPdf::59                     0                       # What write queue length does an incoming req see
system.mem_ctrls1.wrQLenPdf::60                     0                       # What write queue length does an incoming req see
system.mem_ctrls1.wrQLenPdf::61                     0                       # What write queue length does an incoming req see
system.mem_ctrls1.wrQLenPdf::62                     0                       # What write queue length does an incoming req see
system.mem_ctrls1.wrQLenPdf::63                     0                       # What write queue length does an incoming req see
system.mem_ctrls1.bytesPerActivate::samples      2541462                       # Bytes accessed per row activation
system.mem_ctrls1.bytesPerActivate::mean   141.988093                       # Bytes accessed per row activation
system.mem_ctrls1.bytesPerActivate::gmean   107.284734                       # Bytes accessed per row activation
system.mem_ctrls1.bytesPerActivate::stdev   142.931953                       # Bytes accessed per row activation
system.mem_ctrls1.bytesPerActivate::0-127      1351118     53.16%     53.16% # Bytes accessed per row activation
system.mem_ctrls1.bytesPerActivate::128-255       841228     33.10%     86.26% # Bytes accessed per row activation
system.mem_ctrls1.bytesPerActivate::256-383       145878      5.74%     92.00% # Bytes accessed per row activation
system.mem_ctrls1.bytesPerActivate::384-511        72221      2.84%     94.84% # Bytes accessed per row activation
system.mem_ctrls1.bytesPerActivate::512-639        68898      2.71%     97.56% # Bytes accessed per row activation
system.mem_ctrls1.bytesPerActivate::640-767        27135      1.07%     98.62% # Bytes accessed per row activation
system.mem_ctrls1.bytesPerActivate::768-895        22035      0.87%     99.49% # Bytes accessed per row activation
system.mem_ctrls1.bytesPerActivate::896-1023         6844      0.27%     99.76% # Bytes accessed per row activation
system.mem_ctrls1.bytesPerActivate::1024-1151         6105      0.24%    100.00% # Bytes accessed per row activation
system.mem_ctrls1.bytesPerActivate::total      2541462                       # Bytes accessed per row activation
system.mem_ctrls1.rdPerTurnAround::samples        79975                       # Reads before turning the bus around for writes
system.mem_ctrls1.rdPerTurnAround::mean     53.448328                       # Reads before turning the bus around for writes
system.mem_ctrls1.rdPerTurnAround::gmean    47.776306                       # Reads before turning the bus around for writes
system.mem_ctrls1.rdPerTurnAround::stdev   114.642465                       # Reads before turning the bus around for writes
system.mem_ctrls1.rdPerTurnAround::0-1023        79974    100.00%    100.00% # Reads before turning the bus around for writes
system.mem_ctrls1.rdPerTurnAround::30720-31743            1      0.00%    100.00% # Reads before turning the bus around for writes
system.mem_ctrls1.rdPerTurnAround::total        79975                       # Reads before turning the bus around for writes
system.mem_ctrls1.wrPerTurnAround::samples        79975                       # Writes before turning the bus around for reads
system.mem_ctrls1.wrPerTurnAround::mean     17.053304                       # Writes before turning the bus around for reads
system.mem_ctrls1.wrPerTurnAround::gmean    17.020281                       # Writes before turning the bus around for reads
system.mem_ctrls1.wrPerTurnAround::stdev     1.064338                       # Writes before turning the bus around for reads
system.mem_ctrls1.wrPerTurnAround::16           39100     48.89%     48.89% # Writes before turning the bus around for reads
system.mem_ctrls1.wrPerTurnAround::17            1305      1.63%     50.52% # Writes before turning the bus around for reads
system.mem_ctrls1.wrPerTurnAround::18           36118     45.16%     95.68% # Writes before turning the bus around for reads
system.mem_ctrls1.wrPerTurnAround::19            3154      3.94%     99.63% # Writes before turning the bus around for reads
system.mem_ctrls1.wrPerTurnAround::20             258      0.32%     99.95% # Writes before turning the bus around for reads
system.mem_ctrls1.wrPerTurnAround::21              37      0.05%    100.00% # Writes before turning the bus around for reads
system.mem_ctrls1.wrPerTurnAround::22               3      0.00%    100.00% # Writes before turning the bus around for reads
system.mem_ctrls1.wrPerTurnAround::total        79975                       # Writes before turning the bus around for reads
system.mem_ctrls1.totQLat                 94177017936                       # Total ticks spent queuing
system.mem_ctrls1.totMemAccLat           174325467936                       # Total ticks spent from burst creation until serviced by the DRAM
system.mem_ctrls1.totBusLat               21372920000                       # Total ticks spent in databus transfers
system.mem_ctrls1.avgQLat                    22031.86                       # Average queueing delay per DRAM burst
system.mem_ctrls1.avgBusLat                   5000.00                       # Average bus latency per DRAM burst
system.mem_ctrls1.avgMemAccLat               40781.86                       # Average memory access latency per DRAM burst
system.mem_ctrls1.avgRdBW                      153.73                       # Average DRAM read bandwidth in MiByte/s
system.mem_ctrls1.avgWrBW                       49.05                       # Average achieved write bandwidth in MiByte/s
system.mem_ctrls1.avgRdBWSys                   153.76                       # Average system read bandwidth in MiByte/s
system.mem_ctrls1.avgWrBWSys                    49.05                       # Average system write bandwidth in MiByte/s
system.mem_ctrls1.peakBW                     12800.00                       # Theoretical peak bandwidth in MiByte/s
system.mem_ctrls1.busUtil                        1.58                       # Data bus utilization in percentage
system.mem_ctrls1.busUtilRead                    1.20                       # Data bus utilization in percentage for reads
system.mem_ctrls1.busUtilWrite                   0.38                       # Data bus utilization in percentage for writes
system.mem_ctrls1.avgRdQLen                      1.02                       # Average read queue length when enqueuing
system.mem_ctrls1.avgWrQLen                     24.57                       # Average write queue length when enqueuing
system.mem_ctrls1.readRowHits                 2672090                       # Number of row buffer hits during reads
system.mem_ctrls1.writeRowHits                 424860                       # Number of row buffer hits during writes
system.mem_ctrls1.readRowHitRate                62.51                       # Row buffer hit rate for reads
system.mem_ctrls1.writeRowHitRate               31.15                       # Row buffer hit rate for writes
system.mem_ctrls1.avgGap                    315571.55                       # Average gap between requests
system.mem_ctrls1.pageHitRate                   54.93                       # Row buffer hit rate, read and write combined
system.mem_ctrls1_0.actEnergy              9134359080                       # Energy for activate commands per rank (pJ)
system.mem_ctrls1_0.preEnergy              4855004220                       # Energy for precharge commands per rank (pJ)
system.mem_ctrls1_0.readEnergy            15348929400                       # Energy for read commands per rank (pJ)
system.mem_ctrls1_0.writeEnergy            3599555400                       # Energy for write commands per rank (pJ)
system.mem_ctrls1_0.refreshEnergy        138697203840.000031                       # Energy for refresh commands per rank (pJ)
system.mem_ctrls1_0.actBackEnergy         90157548090                       # Energy for active background per rank (pJ)
system.mem_ctrls1_0.preBackEnergy          5029655520                       # Energy for precharge background per rank (pJ)
system.mem_ctrls1_0.actPowerDownEnergy   531042854670                       # Energy for active power-down per rank (pJ)
system.mem_ctrls1_0.prePowerDownEnergy   105900155520                       # Energy for precharge power-down per rank (pJ)
system.mem_ctrls1_0.selfRefreshEnergy     38883238755                       # Energy for self refresh per rank (pJ)
system.mem_ctrls1_0.totalEnergy          942687828885                       # Total energy per rank (pJ)
system.mem_ctrls1_0.averagePower           529.736432                       # Core power per rank (mW)
system.mem_ctrls1_0.totalIdleTime        1568638445185                       # Total Idle time Per DRAM Rank
system.mem_ctrls1_0.memoryStateTime::IDLE   5153544965                       # Time in different power states
system.mem_ctrls1_0.memoryStateTime::REF  58762402000                       # Time in different power states
system.mem_ctrls1_0.memoryStateTime::SREF 128292364283                       # Time in different power states
system.mem_ctrls1_0.memoryStateTime::PRE_PDN 275778752509                       # Time in different power states
system.mem_ctrls1_0.memoryStateTime::ACT 146986735841                       # Time in different power states
system.mem_ctrls1_0.memoryStateTime::ACT_PDN 1164567419194                       # Time in different power states
system.mem_ctrls1_1.actEnergy              9011751000                       # Energy for activate commands per rank (pJ)
system.mem_ctrls1_1.preEnergy              4789844070                       # Energy for precharge commands per rank (pJ)
system.mem_ctrls1_1.readEnergy            15171600360                       # Energy for read commands per rank (pJ)
system.mem_ctrls1_1.writeEnergy            3519678960                       # Energy for write commands per rank (pJ)
system.mem_ctrls1_1.refreshEnergy        138225774960.000031                       # Energy for refresh commands per rank (pJ)
system.mem_ctrls1_1.actBackEnergy         90041840940                       # Energy for active background per rank (pJ)
system.mem_ctrls1_1.preBackEnergy          5079230880                       # Energy for precharge background per rank (pJ)
system.mem_ctrls1_1.actPowerDownEnergy   526108536810                       # Energy for active power-down per rank (pJ)
system.mem_ctrls1_1.prePowerDownEnergy   106851247200                       # Energy for precharge power-down per rank (pJ)
system.mem_ctrls1_1.selfRefreshEnergy     41105282280                       # Energy for self refresh per rank (pJ)
system.mem_ctrls1_1.totalEnergy          939937049340                       # Total energy per rank (pJ)
system.mem_ctrls1_1.averagePower           528.190653                       # Core power per rank (mW)
system.mem_ctrls1_1.totalIdleTime        1568786197635                       # Total Idle time Per DRAM Rank
system.mem_ctrls1_1.memoryStateTime::IDLE   5294765027                       # Time in different power states
system.mem_ctrls1_1.memoryStateTime::REF  58564788000                       # Time in different power states
system.mem_ctrls1_1.memoryStateTime::SREF 136776808163                       # Time in different power states
system.mem_ctrls1_1.memoryStateTime::PRE_PDN 278260504166                       # Time in different power states
system.mem_ctrls1_1.memoryStateTime::ACT 146895284755                       # Time in different power states
system.mem_ctrls1_1.memoryStateTime::ACT_PDN 1153749068681                       # Time in different power states
system.pwrStateResidencyTicks::UNDEFINED 75049695019494                       # Cumulative time (in ticks) in various power states
system.cpu.branchPred.lookups                       2                       # Number of BP lookups
system.cpu.branchPred.condPredicted                 2                       # Number of conditional branches predicted
system.cpu.branchPred.condIncorrect                 1                       # Number of conditional branches incorrect
system.cpu.branchPred.BTBLookups                    0                       # Number of BTB lookups
system.cpu.branchPred.BTBHits                       0                       # Number of BTB hits
system.cpu.branchPred.BTBCorrect                    0                       # Number of correct BTB predictions (this stat may not work properly.
system.cpu.branchPred.BTBHitPct                   nan                       # BTB Hit Percentage
system.cpu.branchPred.usedRAS                       0                       # Number of times the RAS was used to get a target.
system.cpu.branchPred.RASInCorrect                  0                       # Number of incorrect RAS predictions.
system.cpu.branchPred.indirectLookups               0                       # Number of indirect predictor lookups.
system.cpu.branchPred.indirectHits                  0                       # Number of indirect target hits.
system.cpu.branchPred.indirectMisses                0                       # Number of indirect misses.
system.cpu.branchPredindirectMispredicted            0                       # Number of mispredicted indirect branches.
system.cpu_voltage_domain.voltage                   1                       # Voltage in Volts
system.cpu_clk_domain.clock                       333                       # Clock period in ticks
system.cpu.dtb.fetch_hits                           0                       # ITB hits
system.cpu.dtb.fetch_misses                         0                       # ITB misses
system.cpu.dtb.fetch_acv                            0                       # ITB acv
system.cpu.dtb.fetch_accesses                       0                       # ITB accesses
system.cpu.dtb.read_hits                           23                       # DTB read hits
system.cpu.dtb.read_misses                          0                       # DTB read misses
system.cpu.dtb.read_acv                             0                       # DTB read access violations
system.cpu.dtb.read_accesses                       23                       # DTB read accesses
system.cpu.dtb.write_hits                           3                       # DTB write hits
system.cpu.dtb.write_misses                         0                       # DTB write misses
system.cpu.dtb.write_acv                            0                       # DTB write access violations
system.cpu.dtb.write_accesses                       3                       # DTB write accesses
system.cpu.dtb.data_hits                           26                       # DTB hits
system.cpu.dtb.data_misses                          0                       # DTB misses
system.cpu.dtb.data_acv                             0                       # DTB access violations
system.cpu.dtb.data_accesses                       26                       # DTB accesses
system.cpu.itb.fetch_hits                           7                       # ITB hits
system.cpu.itb.fetch_misses                         0                       # ITB misses
system.cpu.itb.fetch_acv                            0                       # ITB acv
system.cpu.itb.fetch_accesses                       7                       # ITB accesses
system.cpu.itb.read_hits                            0                       # DTB read hits
system.cpu.itb.read_misses                          0                       # DTB read misses
system.cpu.itb.read_acv                             0                       # DTB read access violations
system.cpu.itb.read_accesses                        0                       # DTB read accesses
system.cpu.itb.write_hits                           0                       # DTB write hits
system.cpu.itb.write_misses                         0                       # DTB write misses
system.cpu.itb.write_acv                            0                       # DTB write access violations
system.cpu.itb.write_accesses                       0                       # DTB write accesses
system.cpu.itb.data_hits                            0                       # DTB hits
system.cpu.itb.data_misses                          0                       # DTB misses
system.cpu.itb.data_acv                             0                       # DTB access violations
system.cpu.itb.data_accesses                        0                       # DTB accesses
system.cpu.workload.num_syscalls                    0                       # Number of system calls
system.cpu.pwrStateResidencyTicks::ON    1779541218792                       # Cumulative time (in ticks) in various power states
system.cpu.numCycles                              871                       # number of cpu cycles simulated
system.cpu.numWorkItemsStarted                      0                       # number of work items this cpu started
system.cpu.numWorkItemsCompleted                    0                       # number of work items this cpu completed
system.cpu.fetch.icacheStallCycles                 62                       # Number of cycles fetch is stalled on an Icache miss
system.cpu.fetch.Insts                             51                       # Number of instructions fetch has processed
system.cpu.fetch.Branches                           2                       # Number of branches that fetch encountered
system.cpu.fetch.Cycles                             7                       # Number of cycles fetch has run and was not squashing or blocked
system.cpu.fetch.SquashCycles                       5                       # Number of cycles fetch has spent squashing
system.cpu.fetch.PendingDrainCycles                10                       # Number of cycles fetch has spent waiting on pipes to drain
system.cpu.fetch.CacheLines                         7                       # Number of cache lines fetched
system.cpu.fetch.IcacheSquashes                     3                       # Number of outstanding Icache misses that were squashed
system.cpu.fetch.rateDist::samples                 81                       # Number of instructions fetched each cycle (Total)
system.cpu.fetch.rateDist::mean              0.629630                       # Number of instructions fetched each cycle (Total)
system.cpu.fetch.rateDist::stdev             2.100265                       # Number of instructions fetched each cycle (Total)
system.cpu.fetch.rateDist::underflows               0      0.00%      0.00% # Number of instructions fetched each cycle (Total)
system.cpu.fetch.rateDist::0                       74     91.36%     91.36% # Number of instructions fetched each cycle (Total)
system.cpu.fetch.rateDist::1                        0      0.00%     91.36% # Number of instructions fetched each cycle (Total)
system.cpu.fetch.rateDist::2                        0      0.00%     91.36% # Number of instructions fetched each cycle (Total)
system.cpu.fetch.rateDist::3                        0      0.00%     91.36% # Number of instructions fetched each cycle (Total)
system.cpu.fetch.rateDist::4                        1      1.23%     92.59% # Number of instructions fetched each cycle (Total)
[...]
system.switch_cpus_1.iq.int_inst_queue_writes    142180756                       # Number of integer instruction queue writes
system.switch_cpus_1.iq.int_inst_queue_wakeup_accesses    140180983                       # Number of integer instruction queue wakeup accesses
system.switch_cpus_1.iq.fp_inst_queue_reads    152763518                       # Number of floating instruction queue reads
system.switch_cpus_1.iq.fp_inst_queue_writes     62657951                       # Number of floating instruction queue writes
system.switch_cpus_1.iq.fp_inst_queue_wakeup_accesses     61348871                       # Number of floating instruction queue wakeup accesses
system.switch_cpus_1.iq.int_alu_accesses    154310046                       # Number of integer alu accesses
system.switch_cpus_1.iq.fp_alu_accesses      82278737                       # Number of floating point alu accesses
system.switch_cpus_1.iew.lsq.thread0.forwLoads      1453006                       # Number of loads that had data forwarded from stores
system.switch_cpus_1.iew.lsq.thread0.invAddrLoads            0                       # Number of loads ignored due to an invalid address
system.switch_cpus_1.iew.lsq.thread0.squashedLoads       803358                       # Number of loads squashed
system.switch_cpus_1.iew.lsq.thread0.ignoredResponses            0                       # Number of memory responses ignored because the instruction is squashed
system.switch_cpus_1.iew.lsq.thread0.memOrderViolation          350                       # Number of memory ordering violations
system.switch_cpus_1.iew.lsq.thread0.squashedStores       152039                       # Number of stores squashed
system.switch_cpus_1.iew.lsq.thread0.invAddrSwpfs            0                       # Number of software prefetches ignored due to an invalid address
system.switch_cpus_1.iew.lsq.thread0.blockedLoads            0                       # Number of blocked loads due to partial load-store forwarding
system.switch_cpus_1.iew.lsq.thread0.rescheduledLoads            0                       # Number of loads that were rescheduled
system.switch_cpus_1.iew.lsq.thread0.cacheBlocked     13048622                       # Number of times an access to memory failed due to the cache being blocked
system.switch_cpus_1.iew.iewIdleCycles              0                       # Number of cycles IEW is idle
system.switch_cpus_1.iew.iewSquashCycles        63497                       # Number of cycles IEW is squashing
system.switch_cpus_1.iew.iewBlockCycles      16273955                       # Number of cycles IEW is blocking
system.switch_cpus_1.iew.iewUnblockCycles     30681987                       # Number of cycles IEW is unblocking
system.switch_cpus_1.iew.iewDispatchedInsts    202487104                       # Number of instructions dispatched to IQ
system.switch_cpus_1.iew.iewDispSquashedInsts        61688                       # Number of squashed instructions skipped by dispatch
system.switch_cpus_1.iew.iewDispLoadInsts     68397757                       # Number of dispatched load instructions
system.switch_cpus_1.iew.iewDispStoreInsts     10464520                       # Number of dispatched store instructions
system.switch_cpus_1.iew.iewDispNonSpecInsts           86                       # Number of dispatched non-speculative instructions
system.switch_cpus_1.iew.iewIQFullEvents       249739                       # Number of times the IQ has become full, causing a stall
system.switch_cpus_1.iew.iewLSQFullEvents     30168997                       # Number of times the LSQ has become full, causing a stall
system.switch_cpus_1.iew.memOrderViolationEvents          350                       # Number of memory order violations
system.switch_cpus_1.iew.predictedTakenIncorrect        47597                       # Number of branches that were predicted taken incorrectly
system.switch_cpus_1.iew.predictedNotTakenIncorrect          434                       # Number of branches that were predicted not taken incorrectly
system.switch_cpus_1.iew.branchMispredicts        48031                       # Number of branch mispredicts detected at execute
system.switch_cpus_1.iew.iewExecutedInsts    214435329                       # Number of executed instructions
system.switch_cpus_1.iew.iewExecLoadInsts     80931516                       # Number of load instructions executed
system.switch_cpus_1.iew.iewExecSquashedInsts       115478                       # Number of squashed instructions skipped in execute
system.switch_cpus_1.iew.exec_swp                   0                       # number of swp insts executed
system.switch_cpus_1.iew.exec_nop               67882                       # number of nop insts executed
system.switch_cpus_1.iew.exec_refs           91286329                       # number of memory reference insts executed
system.switch_cpus_1.iew.exec_branches        5549890                       # Number of branches executed
system.switch_cpus_1.iew.exec_stores         10354813                       # Number of stores executed
system.switch_cpus_1.iew.exec_rate           0.902897                       # Inst execution rate
system.switch_cpus_1.iew.wb_sent            201664265                       # cumulative count of insts sent to commit
system.switch_cpus_1.iew.wb_count           201529854                       # cumulative count of insts written-back
system.switch_cpus_1.iew.wb_producers       139693208                       # num instructions producing a value
system.switch_cpus_1.iew.wb_consumers       153349202                       # num instructions consuming a value
system.switch_cpus_1.iew.wb_rate             0.848557                       # insts written-back per cycle
system.switch_cpus_1.iew.wb_fanout           0.910948                       # average fanout of values written-back
system.switch_cpus_1.commit.commitSquashedInsts      2362472                       # The number of squashed insts skipped by commit
system.switch_cpus_1.commit.commitNonSpecStalls          144                       # The number of times commit has been forced to stall to communicate backwards
system.switch_cpus_1.commit.branchMispredicts        47870                       # The number of times a branch was mispredicted
system.switch_cpus_1.commit.committed_per_cycle::samples    237167468                       # Number of insts commited each cycle
system.switch_cpus_1.commit.committed_per_cycle::mean     0.843533                       # Number of insts commited each cycle
system.switch_cpus_1.commit.committed_per_cycle::stdev     2.298454                       # Number of insts commited each cycle
system.switch_cpus_1.commit.committed_per_cycle::underflows            0      0.00%      0.00% # Number of insts commited each cycle
system.switch_cpus_1.commit.committed_per_cycle::0    201338875     84.89%     84.89% # Number of insts commited each cycle
system.switch_cpus_1.commit.committed_per_cycle::1      7442646      3.14%     88.03% # Number of insts commited each cycle
system.switch_cpus_1.commit.committed_per_cycle::2      1495887      0.63%     88.66% # Number of insts commited each cycle
system.switch_cpus_1.commit.committed_per_cycle::3      1592348      0.67%     89.33% # Number of insts commited each cycle
system.switch_cpus_1.commit.committed_per_cycle::4      2201441      0.93%     90.26% # Number of insts commited each cycle
system.switch_cpus_1.commit.committed_per_cycle::5      1465293      0.62%     90.88% # Number of insts commited each cycle
system.switch_cpus_1.commit.committed_per_cycle::6      1341591      0.57%     91.45% # Number of insts commited each cycle
system.switch_cpus_1.commit.committed_per_cycle::7      1649664      0.70%     92.14% # Number of insts commited each cycle
system.switch_cpus_1.commit.committed_per_cycle::8     18639723      7.86%    100.00% # Number of insts commited each cycle
system.switch_cpus_1.commit.committed_per_cycle::overflows            0      0.00%    100.00% # Number of insts commited each cycle
system.switch_cpus_1.commit.committed_per_cycle::min_value            0                       # Number of insts commited each cycle
system.switch_cpus_1.commit.committed_per_cycle::max_value            8                       # Number of insts commited each cycle
system.switch_cpus_1.commit.committed_per_cycle::total    237167468                       # Number of insts commited each cycle
system.switch_cpus_1.commit.committedInsts    200058671                       # Number of instructions committed
system.switch_cpus_1.commit.committedOps    200058671                       # Number of ops (including micro ops) committed
system.switch_cpus_1.commit.swp_count               0                       # Number of s/w prefetches committed
system.switch_cpus_1.commit.refs             77906848                       # Number of memory references committed
system.switch_cpus_1.commit.loads            67594371                       # Number of loads committed
system.switch_cpus_1.commit.membars                72                       # Number of memory barriers committed
system.switch_cpus_1.commit.branches          5447366                       # Number of branches committed
system.switch_cpus_1.commit.fp_insts         61032861                       # Number of committed floating point instructions.
system.switch_cpus_1.commit.int_insts       169602469                       # Number of committed integer instructions.
system.switch_cpus_1.commit.function_calls           74                       # Number of function calls committed.
system.switch_cpus_1.commit.op_class_0::No_OpClass        58667      0.03%      0.03% # Class of committed instruction
system.switch_cpus_1.commit.op_class_0::IntAlu     69024585     34.50%     34.53% # Class of committed instruction
system.switch_cpus_1.commit.op_class_0::IntMult     22692429     11.34%     45.87% # Class of committed instruction
system.switch_cpus_1.commit.op_class_0::IntDiv            0      0.00%     45.87% # Class of committed instruction
system.switch_cpus_1.commit.op_class_0::FloatAdd     15421069      7.71%     53.58% # Class of committed instruction
system.switch_cpus_1.commit.op_class_0::FloatCmp            0      0.00%     53.58% # Class of committed instruction
system.switch_cpus_1.commit.op_class_0::FloatCvt         3010      0.00%     53.58% # Class of committed instruction
system.switch_cpus_1.commit.op_class_0::FloatMult     13619855      6.81%     60.39% # Class of committed instruction
system.switch_cpus_1.commit.op_class_0::FloatMultAcc            0      0.00%     60.39% # Class of committed instruction
system.switch_cpus_1.commit.op_class_0::FloatDiv      1151536      0.58%     60.97% # Class of committed instruction
system.switch_cpus_1.commit.op_class_0::FloatMisc            0      0.00%     60.97% # Class of committed instruction
system.switch_cpus_1.commit.op_class_0::FloatSqrt       180600      0.09%     61.06% # Class of committed instruction
system.switch_cpus_1.commit.op_class_0::SimdAdd            0      0.00%     61.06% # Class of committed instruction
system.switch_cpus_1.commit.op_class_0::SimdAddAcc            0      0.00%     61.06% # Class of committed instruction
system.switch_cpus_1.commit.op_class_0::SimdAlu            0      0.00%     61.06% # Class of committed instruction
system.switch_cpus_1.commit.op_class_0::SimdCmp            0      0.00%     61.06% # Class of committed instruction
system.switch_cpus_1.commit.op_class_0::SimdCvt            0      0.00%     61.06% # Class of committed instruction
system.switch_cpus_1.commit.op_class_0::SimdMisc            0      0.00%     61.06% # Class of committed instruction
system.switch_cpus_1.commit.op_class_0::SimdMult            0      0.00%     61.06% # Class of committed instruction
system.switch_cpus_1.commit.op_class_0::SimdMultAcc            0      0.00%     61.06% # Class of committed instruction
system.switch_cpus_1.commit.op_class_0::SimdShift            0      0.00%     61.06% # Class of committed instruction
system.switch_cpus_1.commit.op_class_0::SimdShiftAcc            0      0.00%     61.06% # Class of committed instruction
system.switch_cpus_1.commit.op_class_0::SimdSqrt            0      0.00%     61.06% # Class of committed instruction
system.switch_cpus_1.commit.op_class_0::SimdFloatAdd            0      0.00%     61.06% # Class of committed instruction
system.switch_cpus_1.commit.op_class_0::SimdFloatAlu            0      0.00%     61.06% # Class of committed instruction
system.switch_cpus_1.commit.op_class_0::SimdFloatCmp            0      0.00%     61.06% # Class of committed instruction
system.switch_cpus_1.commit.op_class_0::SimdFloatCvt            0      0.00%     61.06% # Class of committed instruction
system.switch_cpus_1.commit.op_class_0::SimdFloatDiv            0      0.00%     61.06% # Class of committed instruction
system.switch_cpus_1.commit.op_class_0::SimdFloatMisc            0      0.00%     61.06% # Class of committed instruction
system.switch_cpus_1.commit.op_class_0::SimdFloatMult            0      0.00%     61.06% # Class of committed instruction
system.switch_cpus_1.commit.op_class_0::SimdFloatMultAcc            0      0.00%     61.06% # Class of committed instruction
system.switch_cpus_1.commit.op_class_0::SimdFloatSqrt            0      0.00%     61.06% # Class of committed instruction
system.switch_cpus_1.commit.op_class_0::MemRead     44149715     22.07%     83.13% # Class of committed instruction
system.switch_cpus_1.commit.op_class_0::MemWrite      3100414      1.55%     84.68% # Class of committed instruction
system.switch_cpus_1.commit.op_class_0::FloatMemRead     23444728     11.72%     96.40% # Class of committed instruction
system.switch_cpus_1.commit.op_class_0::FloatMemWrite      7212063      3.60%    100.00% # Class of committed instruction
system.switch_cpus_1.commit.op_class_0::IprAccess            0      0.00%    100.00% # Class of committed instruction
system.switch_cpus_1.commit.op_class_0::InstPrefetch            0      0.00%    100.00% # Class of committed instruction
system.switch_cpus_1.commit.op_class_0::total    200058671                       # Class of committed instruction
system.switch_cpus_1.commit.bw_lim_events     18639723                       # number cycles where commit BW limit reached
system.switch_cpus_1.rob.rob_reads          420749715                       # The number of ROB reads
system.switch_cpus_1.rob.rob_writes         405161874                       # The number of ROB writes
system.switch_cpus_1.timesIdled                   100                       # Number of times that the entire CPU went into an idle state and unscheduled itself
system.switch_cpus_1.idleCycles                 10044                       # Total number of cycles that the CPU has spent unscheduled due to idling
system.switch_cpus_1.committedInsts         200000004                       # Number of Instructions Simulated
system.switch_cpus_1.committedOps           200000004                       # Number of Ops (including micro ops) Simulated
system.switch_cpus_1.cpi                     1.187485                       # CPI: Cycles Per Instruction
system.switch_cpus_1.cpi_total               1.187485                       # CPI: Total CPI of All Threads
system.switch_cpus_1.ipc                     0.842116                       # IPC: Instructions Per Cycle
system.switch_cpus_1.ipc_total               0.842116                       # IPC: Total IPC of All Threads
system.switch_cpus_1.int_regfile_reads      260971638                       # number of integer regfile reads
system.switch_cpus_1.int_regfile_writes     131552719                       # number of integer regfile writes
system.switch_cpus_1.fp_regfile_reads        68055563                       # number of floating regfile reads
system.switch_cpus_1.fp_regfile_writes       54126761                       # number of floating regfile writes
system.switch_cpus_1.misc_regfile_reads           162                       # number of misc regfile reads
system.switch_cpus_1.misc_regfile_writes          144                       # number of misc regfile writes
system.tol3bus.snoop_filter.tot_requests     21501566                       # Total number of requests made to the snoop filter.
system.tol3bus.snoop_filter.hit_single_requests     10748476                       # Number of requests hitting in the snoop filter with a single holder of the requested data.
system.tol3bus.snoop_filter.hit_multi_requests            0                       # Number of requests hitting in the snoop filter with multiple (>1) holders of the requested data.
system.tol3bus.snoop_filter.tot_snoops          38774                       # Total number of snoops made to the snoop filter.
system.tol3bus.snoop_filter.hit_single_snoops        38774                       # Number of snoops hitting in the snoop filter with a single holder of the requested data.
system.tol3bus.snoop_filter.hit_multi_snoops            0                       # Number of snoops hitting in the snoop filter with multiple (>1) holders of the requested data.
system.tol3bus.pwrStateResidencyTicks::UNDEFINED 75049695019494                       # Cumulative time (in ticks) in various power states
system.tol3bus.trans_dist::ReadResp           8306219                       # Transaction distribution
system.tol3bus.trans_dist::WritebackDirty      6017007                       # Transaction distribution
system.tol3bus.trans_dist::CleanEvict        13219004                       # Transaction distribution
system.tol3bus.trans_dist::ReadExReq          2446871                       # Transaction distribution
system.tol3bus.trans_dist::ReadExResp         2446869                       # Transaction distribution
system.tol3bus.trans_dist::ReadSharedReq      8306219                       # Transaction distribution
system.tol3bus.pkt_count_system.cpu.l2.mem_side::system.l3.cpu_side     32254654                       # Packet count per connected master and slave (bytes)
system.tol3bus.pkt_size_system.cpu.l2.mem_side::system.l3.cpu_side    898716928                       # Cumulative packet size per connected master and slave (bytes)
system.tol3bus.snoops                         8487535                       # Total snoops (count)
system.tol3bus.snoopTraffic                 174569152                       # Total snoop traffic (bytes)
system.tol3bus.snoop_fanout::samples         19240625                       # Request fanout histogram
system.tol3bus.snoop_fanout::mean            0.002015                       # Request fanout histogram
system.tol3bus.snoop_fanout::stdev           0.044846                       # Request fanout histogram
system.tol3bus.snoop_fanout::underflows             0      0.00%      0.00% # Request fanout histogram
system.tol3bus.snoop_fanout::0               19201851     99.80%     99.80% # Request fanout histogram
system.tol3bus.snoop_fanout::1                  38774      0.20%    100.00% # Request fanout histogram
system.tol3bus.snoop_fanout::overflows              0      0.00%    100.00% # Request fanout histogram
system.tol3bus.snoop_fanout::min_value              0                       # Request fanout histogram
system.tol3bus.snoop_fanout::max_value              1                       # Request fanout histogram
system.tol3bus.snoop_fanout::total           19240625                       # Request fanout histogram
system.tol3bus.reqLayer0.occupancy         8255379690                       # Layer occupancy (ticks)
system.tol3bus.reqLayer0.utilization              0.5                       # Layer utilization (%)
system.tol3bus.respLayer0.occupancy        7161556608                       # Layer occupancy (ticks)
system.tol3bus.respLayer0.utilization             0.4                       # Layer utilization (%)

---------- End Simulation Statistics   ----------
