
---------- Begin Simulation Statistics ----------
sim_seconds                                  2.111430                       # Number of seconds simulated
sim_ticks                                2111430443679                       # Number of ticks simulated
final_tick                               75381584244381                       # Number of ticks from beginning of simulation (restored from checkpoints and never reset)
sim_freq                                 1000000000000                       # Frequency of simulated ticks
host_inst_rate                                 260213                       # Simulator instruction rate (inst/s)
host_op_rate                                   260213                       # Simulator op (including micro ops) rate (op/s)
host_tick_rate                              366281162                       # Simulator tick rate (ticks/s)
host_mem_usage                                2404764                       # Number of bytes of host memory used
host_seconds                                  5764.51                       # Real time elapsed on the host
sim_insts                                  1500000007                       # Number of instructions simulated
sim_ops                                    1500000007                       # Number of ops (including micro ops) simulated
system.voltage_domain.voltage                       1                       # Voltage in Volts
system.clk_domain.clock                          1000                       # Clock period in ticks
system.mem_ctrls0.pwrStateResidencyTicks::UNDEFINED 75381584244381                       # Cumulative time (in ticks) in various power states
system.mem_ctrls0.bytes_read::cpu.inst            128                       # Number of bytes read from this memory
system.mem_ctrls0.bytes_read::cpu.data            192                       # Number of bytes read from this memory
system.mem_ctrls0.bytes_read::switch_cpus.inst        43968                       # Number of bytes read from this memory
system.mem_ctrls0.bytes_read::switch_cpus.data    232711808                       # Number of bytes read from this memory
system.mem_ctrls0.bytes_read::switch_cpus_1.inst        15168                       # Number of bytes read from this memory
system.mem_ctrls0.bytes_read::switch_cpus_1.data    113667008                       # Number of bytes read from this memory
system.mem_ctrls0.bytes_read::total         346438272                       # Number of bytes read from this memory
system.mem_ctrls0.bytes_inst_read::cpu.inst          128                       # Number of instructions bytes read from this memory
system.mem_ctrls0.bytes_inst_read::switch_cpus.inst        43968                       # Number of instructions bytes read from this memory
system.mem_ctrls0.bytes_inst_read::switch_cpus_1.inst        15168                       # Number of instructions bytes read from this memory
system.mem_ctrls0.bytes_inst_read::total        59264                       # Number of instructions bytes read from this memory
system.mem_ctrls0.bytes_written::writebacks    113841536                       # Number of bytes written to this memory
system.mem_ctrls0.bytes_written::total      113841536                       # Number of bytes written to this memory
system.mem_ctrls0.num_reads::cpu.inst               2                       # Number of read requests responded to by this memory
system.mem_ctrls0.num_reads::cpu.data               3                       # Number of read requests responded to by this memory
system.mem_ctrls0.num_reads::switch_cpus.inst          687                       # Number of read requests responded to by this memory
system.mem_ctrls0.num_reads::switch_cpus.data      3636122                       # Number of read requests responded to by this memory
system.mem_ctrls0.num_reads::switch_cpus_1.inst          237                       # Number of read requests responded to by this memory
system.mem_ctrls0.num_reads::switch_cpus_1.data      1776047                       # Number of read requests responded to by this memory
system.mem_ctrls0.num_reads::total            5413098                       # Number of read requests responded to by this memory
system.mem_ctrls0.num_writes::writebacks      1778774                       # Number of write requests responded to by this memory
system.mem_ctrls0.num_writes::total           1778774                       # Number of write requests responded to by this memory
system.mem_ctrls0.bw_read::cpu.inst                61                       # Total read bandwidth from this memory (bytes/s)
system.mem_ctrls0.bw_read::cpu.data                91                       # Total read bandwidth from this memory (bytes/s)
system.mem_ctrls0.bw_read::switch_cpus.inst        20824                       # Total read bandwidth from this memory (bytes/s)
system.mem_ctrls0.bw_read::switch_cpus.data    110215238                       # Total read bandwidth from this memory (bytes/s)
system.mem_ctrls0.bw_read::switch_cpus_1.inst         7184                       # Total read bandwidth from this memory (bytes/s)
system.mem_ctrls0.bw_read::switch_cpus_1.data     53834124                       # Total read bandwidth from this memory (bytes/s)
system.mem_ctrls0.bw_read::total            164077521                       # Total read bandwidth from this memory (bytes/s)
system.mem_ctrls0.bw_inst_read::cpu.inst           61                       # Instruction read bandwidth from this memory (bytes/s)
system.mem_ctrls0.bw_inst_read::switch_cpus.inst        20824                       # Instruction read bandwidth from this memory (bytes/s)
system.mem_ctrls0.bw_inst_read::switch_cpus_1.inst         7184                       # Instruction read bandwidth from this memory (bytes/s)
system.mem_ctrls0.bw_inst_read::total           28068                       # Instruction read bandwidth from this memory (bytes/s)
system.mem_ctrls0.bw_write::writebacks       53916783                       # Write bandwidth from this memory (bytes/s)
system.mem_ctrls0.bw_write::total            53916783                       # Write bandwidth from this memory (bytes/s)
system.mem_ctrls0.bw_total::writebacks       53916783                       # Total bandwidth to/from this memory (bytes/s)
system.mem_ctrls0.bw_total::cpu.inst               61                       # Total bandwidth to/from this memory (bytes/s)
system.mem_ctrls0.bw_total::cpu.data               91                       # Total bandwidth to/from this memory (bytes/s)
system.mem_ctrls0.bw_total::switch_cpus.inst        20824                       # Total bandwidth to/from this memory (bytes/s)
system.mem_ctrls0.bw_total::switch_cpus.data    110215238                       # Total bandwidth to/from this memory (bytes/s)
system.mem_ctrls0.bw_total::switch_cpus_1.inst         7184                       # Total bandwidth to/from this memory (bytes/s)
system.mem_ctrls0.bw_total::switch_cpus_1.data     53834124                       # Total bandwidth to/from this memory (bytes/s)
system.mem_ctrls0.bw_total::total           217994303                       # Total bandwidth to/from this memory (bytes/s)
system.mem_ctrls0.readReqs                    5413098                       # Number of read requests accepted
system.mem_ctrls0.writeReqs                   1778774                       # Number of write requests accepted
system.mem_ctrls0.readBursts                  5413098                       # Number of DRAM read bursts, including those serviced by the write queue
system.mem_ctrls0.writeBursts                 1778774                       # Number of DRAM write bursts, including those merged in the write queue
system.mem_ctrls0.bytesReadDRAM             346408832                       # Total number of bytes read from DRAM
system.mem_ctrls0.bytesReadWrQ                  29440                       # Total number of bytes read from write queue
system.mem_ctrls0.bytesWritten              113840320                       # Total number of bytes written to DRAM
system.mem_ctrls0.bytesReadSys              346438272                       # Total read bytes from the system interface side
system.mem_ctrls0.bytesWrittenSys           113841536                       # Total written bytes from the system interface side
system.mem_ctrls0.servicedByWrQ                   460                       # Number of DRAM read bursts serviced by the write queue
system.mem_ctrls0.mergedWrBursts                    0                       # Number of DRAM write bursts merged with an existing one
system.mem_ctrls0.neitherReadNorWriteReqs            0                       # Number of requests that are neither read nor write
system.mem_ctrls0.perBankRdBursts::0           344731                       # Per bank write bursts
system.mem_ctrls0.perBankRdBursts::1           340051                       # Per bank write bursts
system.mem_ctrls0.perBankRdBursts::2           336789                       # Per bank write bursts
system.mem_ctrls0.perBankRdBursts::3           337383                       # Per bank write bursts
system.mem_ctrls0.perBankRdBursts::4           338239                       # Per bank write bursts
system.mem_ctrls0.perBankRdBursts::5           339786                       # Per bank write bursts
system.mem_ctrls0.perBankRdBursts::6           339220                       # Per bank write bursts
system.mem_ctrls0.perBankRdBursts::7           341354                       # Per bank write bursts
system.mem_ctrls0.perBankRdBursts::8           342664                       # Per bank write bursts
system.mem_ctrls0.perBankRdBursts::9           338538                       # Per bank write bursts
system.mem_ctrls0.perBankRdBursts::10          333227                       # Per bank write bursts
system.mem_ctrls0.perBankRdBursts::11          330449                       # Per bank write bursts
system.mem_ctrls0.perBankRdBursts::12          331778                       # Per bank write bursts
system.mem_ctrls0.perBankRdBursts::13          336501                       # Per bank write bursts
system.mem_ctrls0.perBankRdBursts::14          340709                       # Per bank write bursts
system.mem_ctrls0.perBankRdBursts::15          341219                       # Per bank write bursts
system.mem_ctrls0.perBankWrBursts::0           113886                       # Per bank write bursts
system.mem_ctrls0.perBankWrBursts::1           111749                       # Per bank write bursts
system.mem_ctrls0.perBankWrBursts::2           111503                       # Per bank write bursts
system.mem_ctrls0.perBankWrBursts::3           112505                       # Per bank write bursts
system.mem_ctrls0.perBankWrBursts::4           112965                       # Per bank write bursts
system.mem_ctrls0.perBankWrBursts::5           112839                       # Per bank write bursts
system.mem_ctrls0.perBankWrBursts::6           110167                       # Per bank write bursts
system.mem_ctrls0.perBankWrBursts::7           109462                       # Per bank write bursts
system.mem_ctrls0.perBankWrBursts::8           110016                       # Per bank write bursts
system.mem_ctrls0.perBankWrBursts::9           110030                       # Per bank write bursts
system.mem_ctrls0.perBankWrBursts::10          110128                       # Per bank write bursts
system.mem_ctrls0.perBankWrBursts::11          109128                       # Per bank write bursts
system.mem_ctrls0.perBankWrBursts::12          109202                       # Per bank write bursts
system.mem_ctrls0.perBankWrBursts::13          110319                       # Per bank write bursts
system.mem_ctrls0.perBankWrBursts::14          112357                       # Per bank write bursts
system.mem_ctrls0.perBankWrBursts::15          112499                       # Per bank write bursts
system.mem_ctrls0.numRdRetry                        0                       # Number of times read queue was full causing retry
system.mem_ctrls0.numWrRetry                        0                       # Number of times write queue was full causing retry
system.mem_ctrls0.totGap                 2111430198591                       # Total gap between requests
system.mem_ctrls0.readPktSize::0                    0                       # Read request sizes (log2)
system.mem_ctrls0.readPktSize::1                    0                       # Read request sizes (log2)
system.mem_ctrls0.readPktSize::2                    0                       # Read request sizes (log2)
system.mem_ctrls0.readPktSize::3                    0                       # Read request sizes (log2)
system.mem_ctrls0.readPktSize::4                    0                       # Read request sizes (log2)
system.mem_ctrls0.readPktSize::5                    0                       # Read request sizes (log2)
system.mem_ctrls0.readPktSize::6              5413098                       # Read request sizes (log2)
system.mem_ctrls0.writePktSize::0                   0                       # Write request sizes (log2)
system.mem_ctrls0.writePktSize::1                   0                       # Write request sizes (log2)
system.mem_ctrls0.writePktSize::2                   0                       # Write request sizes (log2)
system.mem_ctrls0.writePktSize::3                   0                       # Write request sizes (log2)
system.mem_ctrls0.writePktSize::4                   0                       # Write request sizes (log2)
system.mem_ctrls0.writePktSize::5                   0                       # Write request sizes (log2)
system.mem_ctrls0.writePktSize::6             1778774                       # Write request sizes (log2)
system.mem_ctrls0.rdQLenPdf::0                4887164                       # What read queue length does an incoming req see
system.mem_ctrls0.rdQLenPdf::1                 432091                       # What read queue length does an incoming req see
system.mem_ctrls0.rdQLenPdf::2                  85912                       # What read queue length does an incoming req see
system.mem_ctrls0.rdQLenPdf::3                   7468                       # What read queue length does an incoming req see
system.mem_ctrls0.rdQLenPdf::4                      3                       # What read queue length does an incoming req see
system.mem_ctrls0.rdQLenPdf::5                      0                       # What read queue length does an incoming req see
system.mem_ctrls0.rdQLenPdf::6                      0                       # What read queue length does an incoming req see
system.mem_ctrls0.rdQLenPdf::7                      0                       # What read queue length does an incoming req see
system.mem_ctrls0.rdQLenPdf::8                      0                       # What read queue length does an incoming req see
system.mem_ctrls0.rdQLenPdf::9                      0                       # What read queue length does an incoming req see
system.mem_ctrls0.rdQLenPdf::10                     0                       # What read queue length does an incoming req see
system.mem_ctrls0.rdQLenPdf::11                     0                       # What read queue length does an incoming req see
system.mem_ctrls0.rdQLenPdf::12                     0                       # What read queue length does an incoming req see
system.mem_ctrls0.rdQLenPdf::13                     0                       # What read queue length does an incoming req see
system.mem_ctrls0.rdQLenPdf::14                     0                       # What read queue length does an incoming req see
system.mem_ctrls0.rdQLenPdf::15                     0                       # What read queue length does an incoming req see
system.mem_ctrls0.rdQLenPdf::16                     0                       # What read queue length does an incoming req see
system.mem_ctrls0.rdQLenPdf::17                     0                       # What read queue length does an incoming req see
system.mem_ctrls0.rdQLenPdf::18                     0                       # What read queue length does an incoming req see
system.mem_ctrls0.rdQLenPdf::19                     0                       # What read queue length does an incoming req see
system.mem_ctrls0.rdQLenPdf::20                     0                       # What read queue length does an incoming req see
system.mem_ctrls0.rdQLenPdf::21                     0                       # What read queue length does an incoming req see
system.mem_ctrls0.rdQLenPdf::22                     0                       # What read queue length does an incoming req see
system.mem_ctrls0.rdQLenPdf::23                     0                       # What read queue length does an incoming req see
system.mem_ctrls0.rdQLenPdf::24                     0                       # What read queue length does an incoming req see
system.mem_ctrls0.rdQLenPdf::25                     0                       # What read queue length does an incoming req see
system.mem_ctrls0.rdQLenPdf::26                     0                       # What read queue length does an incoming req see
system.mem_ctrls0.rdQLenPdf::27                     0                       # What read queue length does an incoming req see
system.mem_ctrls0.rdQLenPdf::28                     0                       # What read queue length does an incoming req see
system.mem_ctrls0.rdQLenPdf::29                     0                       # What read queue length does an incoming req see
system.mem_ctrls0.rdQLenPdf::30                     0                       # What read queue length does an incoming req see
system.mem_ctrls0.rdQLenPdf::31                     0                       # What read queue length does an incoming req see
system.mem_ctrls0.wrQLenPdf::0                      2                       # What write queue length does an incoming req see
system.mem_ctrls0.wrQLenPdf::1                      2                       # What write queue length does an incoming req see
system.mem_ctrls0.wrQLenPdf::2                      2                       # What write queue length does an incoming req see
system.mem_ctrls0.wrQLenPdf::3                      2                       # What write queue length does an incoming req see
system.mem_ctrls0.wrQLenPdf::4                      2                       # What write queue length does an incoming req see
system.mem_ctrls0.wrQLenPdf::5                      2                       # What write queue length does an incoming req see
system.mem_ctrls0.wrQLenPdf::6                      2                       # What write queue length does an incoming req see
system.mem_ctrls0.wrQLenPdf::7                      2                       # What write queue length does an incoming req see
system.mem_ctrls0.wrQLenPdf::8                      2                       # What write queue length does an incoming req see
system.mem_ctrls0.wrQLenPdf::9                      2                       # What write queue length does an incoming req see
system.mem_ctrls0.wrQLenPdf::10                     2                       # What write queue length does an incoming req see
system.mem_ctrls0.wrQLenPdf::11                     2                       # What write queue length does an incoming req see
system.mem_ctrls0.wrQLenPdf::12                     2                       # What write queue length does an incoming req see
system.mem_ctrls0.wrQLenPdf::13                     2                       # What write queue length does an incoming req see
system.mem_ctrls0.wrQLenPdf::14                     2                       # What write queue length does an incoming req see
system.mem_ctrls0.wrQLenPdf::15                 56542                       # What write queue length does an incoming req see
system.mem_ctrls0.wrQLenPdf::16                 58949                       # What write queue length does an incoming req see
system.mem_ctrls0.wrQLenPdf::17                 96555                       # What write queue length does an incoming req see
system.mem_ctrls0.wrQLenPdf::18                103099                       # What write queue length does an incoming req see
system.mem_ctrls0.wrQLenPdf::19                104152                       # What write queue length does an incoming req see
system.mem_ctrls0.wrQLenPdf::20                104307                       # What write queue length does an incoming req see
system.mem_ctrls0.wrQLenPdf::21                104266                       # What write queue length does an incoming req see
system.mem_ctrls0.wrQLenPdf::22                104364                       # What write queue length does an incoming req see
system.mem_ctrls0.wrQLenPdf::23                104404                       # What write queue length does an incoming req see
system.mem_ctrls0.wrQLenPdf::24                104393                       # What write queue length does an incoming req see
system.mem_ctrls0.wrQLenPdf::25                105021                       # What write queue length does an incoming req see
system.mem_ctrls0.wrQLenPdf::26                105246                       # What write queue length does an incoming req see
system.mem_ctrls0.wrQLenPdf::27                104751                       # What write queue length does an incoming req see
system.mem_ctrls0.wrQLenPdf::28                104549                       # What write queue length does an incoming req see
system.mem_ctrls0.wrQLenPdf::29                104698                       # What write queue length does an incoming req see
system.mem_ctrls0.wrQLenPdf::30                105277                       # What write queue length does an incoming req see
system.mem_ctrls0.wrQLenPdf::31                103976                       # What write queue length does an incoming req see
system.mem_ctrls0.wrQLenPdf::32                103847                       # What write queue length does an incoming req see
system.mem_ctrls0.wrQLenPdf::33                   298                       # What write queue length does an incoming req see
system.mem_ctrls0.wrQLenPdf::34                    41                       # What write queue length does an incoming req see
system.mem_ctrls0.wrQLenPdf::35                     8                       # What write queue length does an incoming req see
system.mem_ctrls0.wrQLenPdf::36                     1                       # What write queue length does an incoming req see
system.mem_ctrls0.wrQLenPdf::37                     0                       # What write queue length does an incoming req see
system.mem_ctrls0.wrQLenPdf::38                     0                       # What write queue length does an incoming req see
system.mem_ctrls0.wrQLenPdf::39                     0                       # What write queue length does an incoming req see
system.mem_ctrls0.wrQLenPdf::40                     0                       # What write queue length does an incoming req see
system.mem_ctrls0.wrQLenPdf::41                     0                       # What write queue length does an incoming req see
system.mem_ctrls0.wrQLenPdf::42                     0                       # What write queue length does an incoming req see
system.mem_ctrls0.wrQLenPdf::43                     0                       # What write queue length does an incoming req see
system.mem_ctrls0.wrQLenPdf::44                     0                       # What write queue length does an incoming req see
system.mem_ctrls0.wrQLenPdf::45                     0                       # What write queue length does an incoming req see
system.mem_ctrls0.wrQLenPdf::46                     0                       # What write queue length does an incoming req see
system.mem_ctrls0.wrQLenPdf::47                     0                       # What write queue length does an incoming req see
system.mem_ctrls0.wrQLenPdf::48                     0                       # What write queue length does an incoming req see
system.mem_ctrls0.wrQLenPdf::49                     0                       # What write queue length does an incoming req see
system.mem_ctrls0.wrQLenPdf::50                     0                       # What write queue length does an incoming req see
system.mem_ctrls0.wrQLenPdf::51                     0                       # What write queue length does an incoming req see
system.mem_ctrls0.wrQLenPdf::52                     0                       # What write queue length does an incoming req see
system.mem_ctrls0.wrQLenPdf::53                     0                       # What write queue length does an incoming req see
system.mem_ctrls0.wrQLenPdf::54                     0                       # What write queue length does an incoming req see
system.mem_ctrls0.wrQLenPdf::55                     0                       # What write queue length does an incoming req see
system.mem_ctrls0.wrQLenPdf::56                     0                       # What write queue length does an incoming req see
system.mem_ctrls0.wrQLenPdf::57                     0                       # What write queue length does an incoming req see
system.mem_ctrls0.wrQLenPdf::58                     0                       # What write queue length does an incoming req see
system.mem_ctrls0.wrQLenPdf::59                     0                       # What write queue length does an incoming req see
system.mem_ctrls0.wrQLenPdf::60                     0                       # What write queue length does an incoming req see
system.mem_ctrls0.wrQLenPdf::61                     0                       # What write queue length does an incoming req see
system.mem_ctrls0.wrQLenPdf::62                     0                       # What write queue length does an incoming req see
system.mem_ctrls0.wrQLenPdf::63                     0                       # What write queue length does an incoming req see
system.mem_ctrls0.bytesPerActivate::samples      2761622                       # Bytes accessed per row activation
system.mem_ctrls0.bytesPerActivate::mean   166.658580                       # Bytes accessed per row activation
system.mem_ctrls0.bytesPerActivate::gmean   120.310466                       # Bytes accessed per row activation
system.mem_ctrls0.bytesPerActivate::stdev   170.297174                       # Bytes accessed per row activation
system.mem_ctrls0.bytesPerActivate::0-127      1290539     46.73%     46.73% # Bytes accessed per row activation
system.mem_ctrls0.bytesPerActivate::128-255       955279     34.59%     81.32% # Bytes accessed per row activation
system.mem_ctrls0.bytesPerActivate::256-383       175885      6.37%     87.69% # Bytes accessed per row activation
system.mem_ctrls0.bytesPerActivate::384-511       117731      4.26%     91.95% # Bytes accessed per row activation
system.mem_ctrls0.bytesPerActivate::512-639       115732      4.19%     96.15% # Bytes accessed per row activation
system.mem_ctrls0.bytesPerActivate::640-767        54491      1.97%     98.12% # Bytes accessed per row activation
system.mem_ctrls0.bytesPerActivate::768-895        25242      0.91%     99.03% # Bytes accessed per row activation
system.mem_ctrls0.bytesPerActivate::896-1023         6841      0.25%     99.28% # Bytes accessed per row activation
system.mem_ctrls0.bytesPerActivate::1024-1151        19882      0.72%    100.00% # Bytes accessed per row activation
system.mem_ctrls0.bytesPerActivate::total      2761622                       # Bytes accessed per row activation
system.mem_ctrls0.rdPerTurnAround::samples       103597                       # Reads before turning the bus around for writes
system.mem_ctrls0.rdPerTurnAround::mean     52.246899                       # Reads before turning the bus around for writes
system.mem_ctrls0.rdPerTurnAround::gmean    45.259405                       # Reads before turning the bus around for writes
system.mem_ctrls0.rdPerTurnAround::stdev   102.910183                       # Reads before turning the bus around for writes
system.mem_ctrls0.rdPerTurnAround::0-1023       103596    100.00%    100.00% # Reads before turning the bus around for writes
system.mem_ctrls0.rdPerTurnAround::30720-31743            1      0.00%    100.00% # Reads before turning the bus around for writes
system.mem_ctrls0.rdPerTurnAround::total       103597                       # Reads before turning the bus around for writes
system.mem_ctrls0.wrPerTurnAround::samples       103597                       # Writes before turning the bus around for reads
system.mem_ctrls0.wrPerTurnAround::mean     17.169947                       # Writes before turning the bus around for reads
system.mem_ctrls0.wrPerTurnAround::gmean    17.137296                       # Writes before turning the bus around for reads
system.mem_ctrls0.wrPerTurnAround::stdev     1.057892                       # Writes before turning the bus around for reads
system.mem_ctrls0.wrPerTurnAround::16           44601     43.05%     43.05% # Writes before turning the bus around for reads
system.mem_ctrls0.wrPerTurnAround::17            2040      1.97%     45.02% # Writes before turning the bus around for reads
system.mem_ctrls0.wrPerTurnAround::18           52375     50.56%     95.58% # Writes before turning the bus around for reads
system.mem_ctrls0.wrPerTurnAround::19            4012      3.87%     99.45% # Writes before turning the bus around for reads
system.mem_ctrls0.wrPerTurnAround::20             486      0.47%     99.92% # Writes before turning the bus around for reads
system.mem_ctrls0.wrPerTurnAround::21              71      0.07%     99.99% # Writes before turning the bus around for reads
system.mem_ctrls0.wrPerTurnAround::22              11      0.01%    100.00% # Writes before turning the bus around for reads
system.mem_ctrls0.wrPerTurnAround::28               1      0.00%    100.00% # Writes before turning the bus around for reads
system.mem_ctrls0.wrPerTurnAround::total       103597                       # Writes before turning the bus around for reads
system.mem_ctrls0.totQLat                113799264104                       # Total ticks spent queuing
system.mem_ctrls0.totMemAccLat           215286226604                       # Total ticks spent from burst creation until serviced by the DRAM
system.mem_ctrls0.totBusLat               27063190000                       # Total ticks spent in databus transfers
system.mem_ctrls0.avgQLat                    21024.73                       # Average queueing delay per DRAM burst
system.mem_ctrls0.avgBusLat                   5000.00                       # Average bus latency per DRAM burst
system.mem_ctrls0.avgMemAccLat               39774.73                       # Average memory access latency per DRAM burst
system.mem_ctrls0.avgRdBW                      164.06                       # Average DRAM read bandwidth in MiByte/s
system.mem_ctrls0.avgWrBW                       53.92                       # Average achieved write bandwidth in MiByte/s
system.mem_ctrls0.avgRdBWSys                   164.08                       # Average system read bandwidth in MiByte/s
system.mem_ctrls0.avgWrBWSys                    53.92                       # Average system write bandwidth in MiByte/s
system.mem_ctrls0.peakBW                     12800.00                       # Theoretical peak bandwidth in MiByte/s
system.mem_ctrls0.busUtil                        1.70                       # Data bus utilization in percentage
system.mem_ctrls0.busUtilRead                    1.28                       # Data bus utilization in percentage for reads
system.mem_ctrls0.busUtilWrite                   0.42                       # Data bus utilization in percentage for writes
system.mem_ctrls0.avgRdQLen                      1.04                       # Average read queue length when enqueuing
system.mem_ctrls0.avgWrQLen                     24.53                       # Average write queue length when enqueuing
system.mem_ctrls0.readRowHits                 3506591                       # Number of row buffer hits during reads
system.mem_ctrls0.writeRowHits                 923170                       # Number of row buffer hits during writes
system.mem_ctrls0.readRowHitRate                64.79                       # Row buffer hit rate for reads
system.mem_ctrls0.writeRowHitRate               51.90                       # Row buffer hit rate for writes
system.mem_ctrls0.avgGap                    293585.62                       # Average gap between requests
system.mem_ctrls0.pageHitRate                   61.60                       # Row buffer hit rate, read and write combined
system.mem_ctrls0_0.actEnergy              9902972940                       # Energy for activate commands per rank (pJ)
system.mem_ctrls0_0.preEnergy              5263535970                       # Energy for precharge commands per rank (pJ)
system.mem_ctrls0_0.readEnergy            19403328420                       # Energy for read commands per rank (pJ)
system.mem_ctrls0_0.writeEnergy            4672296720                       # Energy for write commands per rank (pJ)
system.mem_ctrls0_0.refreshEnergy        163869785040.000031                       # Energy for refresh commands per rank (pJ)
system.mem_ctrls0_0.actBackEnergy        108120595920                       # Energy for active background per rank (pJ)
system.mem_ctrls0_0.preBackEnergy          5704631040                       # Energy for precharge background per rank (pJ)
system.mem_ctrls0_0.actPowerDownEnergy   635599689180                       # Energy for active power-down per rank (pJ)
system.mem_ctrls0_0.prePowerDownEnergy   120427196640                       # Energy for precharge power-down per rank (pJ)
system.mem_ctrls0_0.selfRefreshEnergy     45358927770                       # Energy for self refresh per rank (pJ)
system.mem_ctrls0_0.totalEnergy          1118355007320                       # Total energy per rank (pJ)
system.mem_ctrls0_0.averagePower           529.666985                       # Core power per rank (mW)
system.mem_ctrls0_0.totalIdleTime        1859395072489                       # Total Idle time Per DRAM Rank
system.mem_ctrls0_0.memoryStateTime::IDLE   5972938866                       # Time in different power states
system.mem_ctrls0_0.memoryStateTime::REF  69418352000                       # Time in different power states
system.mem_ctrls0_0.memoryStateTime::SREF 151925313845                       # Time in different power states
system.mem_ctrls0_0.memoryStateTime::PRE_PDN 313609761186                       # Time in different power states
system.mem_ctrls0_0.memoryStateTime::ACT 176643991188                       # Time in different power states
system.mem_ctrls0_0.memoryStateTime::ACT_PDN 1393860086594                       # Time in different power states
system.mem_ctrls0_1.actEnergy              9815079540                       # Energy for activate commands per rank (pJ)
system.mem_ctrls0_1.preEnergy              5216819520                       # Energy for precharge commands per rank (pJ)
system.mem_ctrls0_1.readEnergy            19242906900                       # Energy for read commands per rank (pJ)
system.mem_ctrls0_1.writeEnergy            4612804380                       # Energy for write commands per rank (pJ)
system.mem_ctrls0_1.refreshEnergy        163354716720.000031                       # Energy for refresh commands per rank (pJ)
system.mem_ctrls0_1.actBackEnergy        108330675120                       # Energy for active background per rank (pJ)
system.mem_ctrls0_1.preBackEnergy          5712823200                       # Energy for precharge background per rank (pJ)
system.mem_ctrls0_1.actPowerDownEnergy   630664393200                       # Energy for active power-down per rank (pJ)
system.mem_ctrls0_1.prePowerDownEnergy   120891417600                       # Energy for precharge power-down per rank (pJ)
system.mem_ctrls0_1.selfRefreshEnergy     47748788760                       # Energy for self refresh per rank (pJ)
system.mem_ctrls0_1.totalEnergy          1115622331710                       # Total energy per rank (pJ)
system.mem_ctrls0_1.averagePower           528.372756                       # Core power per rank (mW)
system.mem_ctrls0_1.totalIdleTime        1858919988467                       # Total Idle time Per DRAM Rank
system.mem_ctrls0_1.memoryStateTime::IDLE   6038492568                       # Time in different power states
system.mem_ctrls0_1.memoryStateTime::REF  69202926000                       # Time in different power states
system.mem_ctrls0_1.memoryStateTime::SREF 161057541968                       # Time in different power states
system.mem_ctrls0_1.memoryStateTime::PRE_PDN 314819761670                       # Time in different power states
system.mem_ctrls0_1.memoryStateTime::ACT 177268880507                       # Time in different power states
system.mem_ctrls0_1.memoryStateTime::ACT_PDN 1383042840966                       # Time in different power states
system.mem_ctrls1.pwrStateResidencyTicks::UNDEFINED 75381584244381                       # Cumulative time (in ticks) in various power states
system.mem_ctrls1.bytes_read::cpu.inst            128                       # Number of bytes read from this memory
system.mem_ctrls1.bytes_read::cpu.data            192                       # Number of bytes read from this memory
system.mem_ctrls1.bytes_read::switch_cpus.inst        43840                       # Number of bytes read from this memory
system.mem_ctrls1.bytes_read::switch_cpus.data    232703360                       # Number of bytes read from this memory
system.mem_ctrls1.bytes_read::switch_cpus_1.inst        14784                       # Number of bytes read from this memory
system.mem_ctrls1.bytes_read::switch_cpus_1.data    113633728                       # Number of bytes read from this memory
system.mem_ctrls1.bytes_read::total         346396032                       # Number of bytes read from this memory
system.mem_ctrls1.bytes_inst_read::cpu.inst          128                       # Number of instructions bytes read from this memory
system.mem_ctrls1.bytes_inst_read::switch_cpus.inst        43840                       # Number of instructions bytes read from this memory
system.mem_ctrls1.bytes_inst_read::switch_cpus_1.inst        14784                       # Number of instructions bytes read from this memory
system.mem_ctrls1.bytes_inst_read::total        58752                       # Number of instructions bytes read from this memory
system.mem_ctrls1.bytes_written::writebacks    113838848                       # Number of bytes written to this memory
system.mem_ctrls1.bytes_written::total      113838848                       # Number of bytes written to this memory
system.mem_ctrls1.num_reads::cpu.inst               2                       # Number of read requests responded to by this memory
system.mem_ctrls1.num_reads::cpu.data               3                       # Number of read requests responded to by this memory
system.mem_ctrls1.num_reads::switch_cpus.inst          685                       # Number of read requests responded to by this memory
system.mem_ctrls1.num_reads::switch_cpus.data      3635990                       # Number of read requests responded to by this memory
system.mem_ctrls1.num_reads::switch_cpus_1.inst          231                       # Number of read requests responded to by this memory
system.mem_ctrls1.num_reads::switch_cpus_1.data      1775527                       # Number of read requests responded to by this memory
system.mem_ctrls1.num_reads::total            5412438                       # Number of read requests responded to by this memory
system.mem_ctrls1.num_writes::writebacks      1778732                       # Number of write requests responded to by this memory
system.mem_ctrls1.num_writes::total           1778732                       # Number of write requests responded to by this memory
system.mem_ctrls1.bw_read::cpu.inst                61                       # Total read bandwidth from this memory (bytes/s)
system.mem_ctrls1.bw_read::cpu.data                91                       # Total read bandwidth from this memory (bytes/s)
system.mem_ctrls1.bw_read::switch_cpus.inst        20763                       # Total read bandwidth from this memory (bytes/s)
system.mem_ctrls1.bw_read::switch_cpus.data    110211237                       # Total read bandwidth from this memory (bytes/s)
system.mem_ctrls1.bw_read::switch_cpus_1.inst         7002                       # Total read bandwidth from this memory (bytes/s)
system.mem_ctrls1.bw_read::switch_cpus_1.data     53818362                       # Total read bandwidth from this memory (bytes/s)
system.mem_ctrls1.bw_read::total            164057515                       # Total read bandwidth from this memory (bytes/s)
system.mem_ctrls1.bw_inst_read::cpu.inst           61                       # Instruction read bandwidth from this memory (bytes/s)
system.mem_ctrls1.bw_inst_read::switch_cpus.inst        20763                       # Instruction read bandwidth from this memory (bytes/s)
system.mem_ctrls1.bw_inst_read::switch_cpus_1.inst         7002                       # Instruction read bandwidth from this memory (bytes/s)
system.mem_ctrls1.bw_inst_read::total           27826                       # Instruction read bandwidth from this memory (bytes/s)
system.mem_ctrls1.bw_write::writebacks       53915509                       # Write bandwidth from this memory (bytes/s)
system.mem_ctrls1.bw_write::total            53915509                       # Write bandwidth from this memory (bytes/s)
system.mem_ctrls1.bw_total::writebacks       53915509                       # Total bandwidth to/from this memory (bytes/s)
system.mem_ctrls1.bw_total::cpu.inst               61                       # Total bandwidth to/from this memory (bytes/s)
system.mem_ctrls1.bw_total::cpu.data               91                       # Total bandwidth to/from this memory (bytes/s)
system.mem_ctrls1.bw_total::switch_cpus.inst        20763                       # Total bandwidth to/from this memory (bytes/s)
system.mem_ctrls1.bw_total::switch_cpus.data    110211237                       # Total bandwidth to/from this memory (bytes/s)
system.mem_ctrls1.bw_total::switch_cpus_1.inst         7002                       # Total bandwidth to/from this memory (bytes/s)
system.mem_ctrls1.bw_total::switch_cpus_1.data     53818362                       # Total bandwidth to/from this memory (bytes/s)
system.mem_ctrls1.bw_total::total           217973025                       # Total bandwidth to/from this memory (bytes/s)
system.mem_ctrls1.readReqs                    5412439                       # Number of read requests accepted
system.mem_ctrls1.writeReqs                   1778732                       # Number of write requests accepted
system.mem_ctrls1.readBursts                  5412439                       # Number of DRAM read bursts, including those serviced by the write queue
system.mem_ctrls1.writeBursts                 1778732                       # Number of DRAM write bursts, including those merged in the write queue
system.mem_ctrls1.bytesReadDRAM             346365056                       # Total number of bytes read from DRAM
system.mem_ctrls1.bytesReadWrQ                  31040                       # Total number of bytes read from write queue
system.mem_ctrls1.bytesWritten              113837504                       # Total number of bytes written to DRAM
system.mem_ctrls1.bytesReadSys              346396096                       # Total read bytes from the system interface side
system.mem_ctrls1.bytesWrittenSys           113838848                       # Total written bytes from the system interface side
system.mem_ctrls1.servicedByWrQ                   485                       # Number of DRAM read bursts serviced by the write queue
system.mem_ctrls1.mergedWrBursts                    0                       # Number of DRAM write bursts merged with an existing one
system.mem_ctrls1.neitherReadNorWriteReqs            0                       # Number of requests that are neither read nor write
system.mem_ctrls1.perBankRdBursts::0           344694                       # Per bank write bursts
system.mem_ctrls1.perBankRdBursts::1           339502                       # Per bank write bursts
system.mem_ctrls1.perBankRdBursts::2           337047                       # Per bank write bursts
system.mem_ctrls1.perBankRdBursts::3           337696                       # Per bank write bursts
system.mem_ctrls1.perBankRdBursts::4           337974                       # Per bank write bursts
system.mem_ctrls1.perBankRdBursts::5           339918                       # Per bank write bursts
system.mem_ctrls1.perBankRdBursts::6           339100                       # Per bank write bursts
system.mem_ctrls1.perBankRdBursts::7           341071                       # Per bank write bursts
system.mem_ctrls1.perBankRdBursts::8           342451                       # Per bank write bursts
system.mem_ctrls1.perBankRdBursts::9           338840                       # Per bank write bursts
system.mem_ctrls1.perBankRdBursts::10          333032                       # Per bank write bursts
system.mem_ctrls1.perBankRdBursts::11          330509                       # Per bank write bursts
system.mem_ctrls1.perBankRdBursts::12          331627                       # Per bank write bursts
system.mem_ctrls1.perBankRdBursts::13          336418                       # Per bank write bursts
system.mem_ctrls1.perBankRdBursts::14          340727                       # Per bank write bursts
system.mem_ctrls1.perBankRdBursts::15          341348                       # Per bank write bursts
system.mem_ctrls1.perBankWrBursts::0           113859                       # Per bank write bursts
system.mem_ctrls1.perBankWrBursts::1           111720                       # Per bank write bursts
system.mem_ctrls1.perBankWrBursts::2           111429                       # Per bank write bursts
system.mem_ctrls1.perBankWrBursts::3           112629                       # Per bank write bursts
system.mem_ctrls1.perBankWrBursts::4           112944                       # Per bank write bursts
system.mem_ctrls1.perBankWrBursts::5           112884                       # Per bank write bursts
system.mem_ctrls1.perBankWrBursts::6           110023                       # Per bank write bursts
system.mem_ctrls1.perBankWrBursts::7           109445                       # Per bank write bursts
system.mem_ctrls1.perBankWrBursts::8           109946                       # Per bank write bursts
system.mem_ctrls1.perBankWrBursts::9           110046                       # Per bank write bursts
system.mem_ctrls1.perBankWrBursts::10          110104                       # Per bank write bursts
system.mem_ctrls1.perBankWrBursts::11          109179                       # Per bank write bursts
system.mem_ctrls1.perBankWrBursts::12          109118                       # Per bank write bursts
system.mem_ctrls1.perBankWrBursts::13          110316                       # Per bank write bursts
system.mem_ctrls1.perBankWrBursts::14          112424                       # Per bank write bursts
system.mem_ctrls1.perBankWrBursts::15          112645                       # Per bank write bursts
system.mem_ctrls1.numRdRetry                        0                       # Number of times read queue was full causing retry
system.mem_ctrls1.numWrRetry                        0                       # Number of times write queue was full causing retry
system.mem_ctrls1.totGap                 2111430425031                       # Total gap between requests
system.mem_ctrls1.readPktSize::0                    0                       # Read request sizes (log2)
system.mem_ctrls1.readPktSize::1                    0                       # Read request sizes (log2)
system.mem_ctrls1.readPktSize::2                    0                       # Read request sizes (log2)
system.mem_ctrls1.readPktSize::3                    0                       # Read request sizes (log2)
system.mem_ctrls1.readPktSize::4                    0                       # Read request sizes (log2)
system.mem_ctrls1.readPktSize::5                    0                       # Read request sizes (log2)
system.mem_ctrls1.readPktSize::6              5412439                       # Read request sizes (log2)
system.mem_ctrls1.writePktSize::0                   0                       # Write request sizes (log2)
system.mem_ctrls1.writePktSize::1                   0                       # Write request sizes (log2)
system.mem_ctrls1.writePktSize::2                   0                       # Write request sizes (log2)
system.mem_ctrls1.writePktSize::3                   0                       # Write request sizes (log2)
system.mem_ctrls1.writePktSize::4                   0                       # Write request sizes (log2)
system.mem_ctrls1.writePktSize::5                   0                       # Write request sizes (log2)
system.mem_ctrls1.writePktSize::6             1778732                       # Write request sizes (log2)
system.mem_ctrls1.rdQLenPdf::0                4886619                       # What read queue length does an incoming req see
system.mem_ctrls1.rdQLenPdf::1                 431652                       # What read queue length does an incoming req see
system.mem_ctrls1.rdQLenPdf::2                  86073                       # What read queue length does an incoming req see
system.mem_ctrls1.rdQLenPdf::3                   7610                       # What read queue length does an incoming req see
system.mem_ctrls1.rdQLenPdf::4                      0                       # What read queue length does an incoming req see
system.mem_ctrls1.rdQLenPdf::5                      0                       # What read queue length does an incoming req see
system.mem_ctrls1.rdQLenPdf::6                      0                       # What read queue length does an incoming req see
system.mem_ctrls1.rdQLenPdf::7                      0                       # What read queue length does an incoming req see
system.mem_ctrls1.rdQLenPdf::8                      0                       # What read queue length does an incoming req see
system.mem_ctrls1.rdQLenPdf::9                      0                       # What read queue length does an incoming req see
system.mem_ctrls1.rdQLenPdf::10                     0                       # What read queue length does an incoming req see
system.mem_ctrls1.rdQLenPdf::11                     0                       # What read queue length does an incoming req see
system.mem_ctrls1.rdQLenPdf::12                     0                       # What read queue length does an incoming req see
system.mem_ctrls1.rdQLenPdf::13                     0                       # What read queue length does an incoming req see
system.mem_ctrls1.rdQLenPdf::14                     0                       # What read queue length does an incoming req see
system.mem_ctrls1.rdQLenPdf::15                     0                       # What read queue length does an incoming req see
system.mem_ctrls1.rdQLenPdf::16                     0                       # What read queue length does an incoming req see
system.mem_ctrls1.rdQLenPdf::17                     0                       # What read queue length does an incoming req see
system.mem_ctrls1.rdQLenPdf::18                     0                       # What read queue length does an incoming req see
system.mem_ctrls1.rdQLenPdf::19                     0                       # What read queue length does an incoming req see
system.mem_ctrls1.rdQLenPdf::20                     0                       # What read queue length does an incoming req see
system.mem_ctrls1.rdQLenPdf::21                     0                       # What read queue length does an incoming req see
system.mem_ctrls1.rdQLenPdf::22                     0                       # What read queue length does an incoming req see
system.mem_ctrls1.rdQLenPdf::23                     0                       # What read queue length does an incoming req see
system.mem_ctrls1.rdQLenPdf::24                     0                       # What read queue length does an incoming req see
system.mem_ctrls1.rdQLenPdf::25                     0                       # What read queue length does an incoming req see
system.mem_ctrls1.rdQLenPdf::26                     0                       # What read queue length does an incoming req see
system.mem_ctrls1.rdQLenPdf::27                     0                       # What read queue length does an incoming req see
system.mem_ctrls1.rdQLenPdf::28                     0                       # What read queue length does an incoming req see
system.mem_ctrls1.rdQLenPdf::29                     0                       # What read queue length does an incoming req see
system.mem_ctrls1.rdQLenPdf::30                     0                       # What read queue length does an incoming req see
system.mem_ctrls1.rdQLenPdf::31                     0                       # What read queue length does an incoming req see
system.mem_ctrls1.wrQLenPdf::0                      2                       # What write queue length does an incoming req see
system.mem_ctrls1.wrQLenPdf::1                      2                       # What write queue length does an incoming req see
system.mem_ctrls1.wrQLenPdf::2                      2                       # What write queue length does an incoming req see
system.mem_ctrls1.wrQLenPdf::3                      2                       # What write queue length does an incoming req see
system.mem_ctrls1.wrQLenPdf::4                      2                       # What write queue length does an incoming req see
system.mem_ctrls1.wrQLenPdf::5                      2                       # What write queue length does an incoming req see
system.mem_ctrls1.wrQLenPdf::6                      2                       # What write queue length does an incoming req see
system.mem_ctrls1.wrQLenPdf::7                      2                       # What write queue length does an incoming req see
system.mem_ctrls1.wrQLenPdf::8                      2                       # What write queue length does an incoming req see
system.mem_ctrls1.wrQLenPdf::9                      2                       # What write queue length does an incoming req see
system.mem_ctrls1.wrQLenPdf::10                     2                       # What write queue length does an incoming req see
system.mem_ctrls1.wrQLenPdf::11                     2                       # What write queue length does an incoming req see
system.mem_ctrls1.wrQLenPdf::12                     2                       # What write queue length does an incoming req see
system.mem_ctrls1.wrQLenPdf::13                     2                       # What write queue length does an incoming req see
system.mem_ctrls1.wrQLenPdf::14                     2                       # What write queue length does an incoming req see
system.mem_ctrls1.wrQLenPdf::15                 56341                       # What write queue length does an incoming req see
system.mem_ctrls1.wrQLenPdf::16                 58677                       # What write queue length does an incoming req see
system.mem_ctrls1.wrQLenPdf::17                 96463                       # What write queue length does an incoming req see
system.mem_ctrls1.wrQLenPdf::18                103027                       # What write queue length does an incoming req see
system.mem_ctrls1.wrQLenPdf::19                104172                       # What write queue length does an incoming req see
system.mem_ctrls1.wrQLenPdf::20                104352                       # What write queue length does an incoming req see
system.mem_ctrls1.wrQLenPdf::21                104387                       # What write queue length does an incoming req see
system.mem_ctrls1.wrQLenPdf::22                104411                       # What write queue length does an incoming req see
system.mem_ctrls1.wrQLenPdf::23                104421                       # What write queue length does an incoming req see
system.mem_ctrls1.wrQLenPdf::24                104473                       # What write queue length does an incoming req see
system.mem_ctrls1.wrQLenPdf::25                104969                       # What write queue length does an incoming req see
system.mem_ctrls1.wrQLenPdf::26                105343                       # What write queue length does an incoming req see
system.mem_ctrls1.wrQLenPdf::27                104814                       # What write queue length does an incoming req see
system.mem_ctrls1.wrQLenPdf::28                104577                       # What write queue length does an incoming req see
system.mem_ctrls1.wrQLenPdf::29                104768                       # What write queue length does an incoming req see
system.mem_ctrls1.wrQLenPdf::30                105320                       # What write queue length does an incoming req see
system.mem_ctrls1.wrQLenPdf::31                103929                       # What write queue length does an incoming req see
system.mem_ctrls1.wrQLenPdf::32                103896                       # What write queue length does an incoming req see
system.mem_ctrls1.wrQLenPdf::33                   296                       # What write queue length does an incoming req see
system.mem_ctrls1.wrQLenPdf::34                    53                       # What write queue length does an incoming req see
system.mem_ctrls1.wrQLenPdf::35                    11                       # What write queue length does an incoming req see
system.mem_ctrls1.wrQLenPdf::36                     2                       # What write queue length does an incoming req see
system.mem_ctrls1.wrQLenPdf::37                     0                       # What write queue length does an incoming req see
system.mem_ctrls1.wrQLenPdf::38                     0                       # What write queue length does an incoming req see
system.mem_ctrls1.wrQLenPdf::39                     0                       # What write queue length does an incoming req see
system.mem_ctrls1.wrQLenPdf::40                     0                       # What write queue length does an incoming req see
system.mem_ctrls1.wrQLenPdf::41                     0                       # What write queue length does an incoming req see
system.mem_ctrls1.wrQLenPdf::42                     0                       # What write queue length does an incoming req see
system.mem_ctrls1.wrQLenPdf::43                     0                       # What write queue length does an incoming req see
system.mem_ctrls1.wrQLenPdf::44                     0                       # What write queue length does an incoming req see
system.mem_ctrls1.wrQLenPdf::45                     0                       # What write queue length does an incoming req see
system.mem_ctrls1.wrQLenPdf::46                     0                       # What write queue length does an incoming req see
system.mem_ctrls1.wrQLenPdf::47                     0                       # What write queue length does an incoming req see
system.mem_ctrls1.wrQLenPdf::48                     0                       # What write queue length does an incoming req see
system.mem_ctrls1.wrQLenPdf::49                     0                       # What write queue length does an incoming req see
system.mem_ctrls1.wrQLenPdf::50                     0                       # What write queue length does an incoming req see
system.mem_ctrls1.wrQLenPdf::51                     0                       # What write queue length does an incoming req see
system.mem_ctrls1.wrQLenPdf::52                     0                       # What write queue length does an incoming req see
system.mem_ctrls1.wrQLenPdf::53                     0                       # What write queue length does an incoming req see
system.mem_ctrls1.wrQLenPdf::54                     0                       # What write queue length does an incoming req see
system.mem_ctrls1.wrQLenPdf::55                     0                       # What write queue length does an incoming req see
system.mem_ctrls1.wrQLenPdf::56                     0                       # What write queue length does an incoming req see
system.mem_ctrls1.wrQLenPdf::57                     0                       # What write queue length does an incoming req see
system.mem_ctrls1.wrQLenPdf::58                     0                       # What write queue length does an incoming req see
system.mem_ctrls1.wrQLenPdf::59                     0                       # What write queue length does an incoming req see
system.mem_ctrls1.wrQLenPdf::60                     0                       # What write queue length does an incoming req see
system.mem_ctrls1.wrQLenPdf::61                     0                       # What write queue length does an incoming req see
system.mem_ctrls1.wrQLenPdf::62                     0                       # What write queue length does an incoming req see
system.mem_ctrls1.wrQLenPdf::63                     0                       # What write queue length does an incoming req see
system.mem_ctrls1.bytesPerActivate::samples      2761171                       # Bytes accessed per row activation
system.mem_ctrls1.bytesPerActivate::mean   166.668371                       # Bytes accessed per row activation
system.mem_ctrls1.bytesPerActivate::gmean   120.336998                       # Bytes accessed per row activation
system.mem_ctrls1.bytesPerActivate::stdev   170.258012                       # Bytes accessed per row activation
system.mem_ctrls1.bytesPerActivate::0-127      1289814     46.71%     46.71% # Bytes accessed per row activation
system.mem_ctrls1.bytesPerActivate::128-255       955325     34.60%     81.31% # Bytes accessed per row activation
system.mem_ctrls1.bytesPerActivate::256-383       176633      6.40%     87.71% # Bytes accessed per row activation
system.mem_ctrls1.bytesPerActivate::384-511       117419      4.25%     91.96% # Bytes accessed per row activation
system.mem_ctrls1.bytesPerActivate::512-639       115595      4.19%     96.15% # Bytes accessed per row activation
system.mem_ctrls1.bytesPerActivate::640-767        54540      1.98%     98.12% # Bytes accessed per row activation
system.mem_ctrls1.bytesPerActivate::768-895        25038      0.91%     99.03% # Bytes accessed per row activation
system.mem_ctrls1.bytesPerActivate::896-1023         6879      0.25%     99.28% # Bytes accessed per row activation
system.mem_ctrls1.bytesPerActivate::1024-1151        19928      0.72%    100.00% # Bytes accessed per row activation
system.mem_ctrls1.bytesPerActivate::total      2761171                       # Bytes accessed per row activation
system.mem_ctrls1.rdPerTurnAround::samples       103620                       # Reads before turning the bus around for writes
system.mem_ctrls1.rdPerTurnAround::mean     52.228450                       # Reads before turning the bus around for writes
system.mem_ctrls1.rdPerTurnAround::gmean    45.231173                       # Reads before turning the bus around for writes
system.mem_ctrls1.rdPerTurnAround::stdev   102.870861                       # Reads before turning the bus around for writes
system.mem_ctrls1.rdPerTurnAround::0-1023       103619    100.00%    100.00% # Reads before turning the bus around for writes
system.mem_ctrls1.rdPerTurnAround::30720-31743            1      0.00%    100.00% # Reads before turning the bus around for writes
system.mem_ctrls1.rdPerTurnAround::total       103620                       # Reads before turning the bus around for writes
system.mem_ctrls1.wrPerTurnAround::samples       103620                       # Writes before turning the bus around for reads
system.mem_ctrls1.wrPerTurnAround::mean     17.165711                       # Writes before turning the bus around for reads
system.mem_ctrls1.wrPerTurnAround::gmean    17.132968                       # Writes before turning the bus around for reads
system.mem_ctrls1.wrPerTurnAround::stdev     1.059578                       # Writes before turning the bus around for reads
system.mem_ctrls1.wrPerTurnAround::16           44885     43.32%     43.32% # Writes before turning the bus around for reads
system.mem_ctrls1.wrPerTurnAround::17            1942      1.87%     45.19% # Writes before turning the bus around for reads
system.mem_ctrls1.wrPerTurnAround::18           52215     50.39%     95.58% # Writes before turning the bus around for reads
system.mem_ctrls1.wrPerTurnAround::19            4004      3.86%     99.45% # Writes before turning the bus around for reads
system.mem_ctrls1.wrPerTurnAround::20             486      0.47%     99.92% # Writes before turning the bus around for reads
system.mem_ctrls1.wrPerTurnAround::21              74      0.07%     99.99% # Writes before turning the bus around for reads
system.mem_ctrls1.wrPerTurnAround::22              12      0.01%    100.00% # Writes before turning the bus around for reads
system.mem_ctrls1.wrPerTurnAround::23               1      0.00%    100.00% # Writes before turning the bus around for reads
system.mem_ctrls1.wrPerTurnAround::30               1      0.00%    100.00% # Writes before turning the bus around for reads
system.mem_ctrls1.wrPerTurnAround::total       103620                       # Writes before turning the bus around for reads
system.mem_ctrls1.totQLat                113444092081                       # Total ticks spent queuing
system.mem_ctrls1.totMemAccLat           214918229581                       # Total ticks spent from burst creation until serviced by the DRAM
system.mem_ctrls1.totBusLat               27059770000                       # Total ticks spent in databus transfers
system.mem_ctrls1.avgQLat                    20961.76                       # Average queueing delay per DRAM burst
system.mem_ctrls1.avgBusLat                   5000.00                       # Average bus latency per DRAM burst
system.mem_ctrls1.avgMemAccLat               39711.76                       # Average memory access latency per DRAM burst
system.mem_ctrls1.avgRdBW                      164.04                       # Average DRAM read bandwidth in MiByte/s
system.mem_ctrls1.avgWrBW                       53.91                       # Average achieved write bandwidth in MiByte/s
system.mem_ctrls1.avgRdBWSys                   164.06                       # Average system read bandwidth in MiByte/s
system.mem_ctrls1.avgWrBWSys                    53.92                       # Average system write bandwidth in MiByte/s
system.mem_ctrls1.peakBW                     12800.00                       # Theoretical peak bandwidth in MiByte/s
system.mem_ctrls1.busUtil                        1.70                       # Data bus utilization in percentage
system.mem_ctrls1.busUtilRead                    1.28                       # Data bus utilization in percentage for reads
system.mem_ctrls1.busUtilWrite                   0.42                       # Data bus utilization in percentage for writes
system.mem_ctrls1.avgRdQLen                      1.04                       # Average read queue length when enqueuing
system.mem_ctrls1.avgWrQLen                     24.52                       # Average write queue length when enqueuing
system.mem_ctrls1.readRowHits                 3505665                       # Number of row buffer hits during reads
system.mem_ctrls1.writeRowHits                 923818                       # Number of row buffer hits during writes
system.mem_ctrls1.readRowHitRate                64.78                       # Row buffer hit rate for reads
system.mem_ctrls1.writeRowHitRate               51.94                       # Row buffer hit rate for writes
system.mem_ctrls1.avgGap                    293614.27                       # Average gap between requests
system.mem_ctrls1.pageHitRate                   61.60                       # Row buffer hit rate, read and write combined
system.mem_ctrls1_0.actEnergy              9897960660                       # Energy for activate commands per rank (pJ)
system.mem_ctrls1_0.preEnergy              5260868085                       # Energy for precharge commands per rank (pJ)
system.mem_ctrls1_0.readEnergy            19399394280                       # Energy for read commands per rank (pJ)
system.mem_ctrls1_0.writeEnergy            4671550260                       # Energy for write commands per rank (pJ)
system.mem_ctrls1_0.refreshEnergy        163839053040.000031                       # Energy for refresh commands per rank (pJ)
system.mem_ctrls1_0.actBackEnergy        108058212270                       # Energy for active background per rank (pJ)
system.mem_ctrls1_0.preBackEnergy          5689702560                       # Energy for precharge background per rank (pJ)
system.mem_ctrls1_0.actPowerDownEnergy   635139604560                       # Energy for active power-down per rank (pJ)
system.mem_ctrls1_0.prePowerDownEnergy   120639251520                       # Energy for precharge power-down per rank (pJ)
system.mem_ctrls1_0.selfRefreshEnergy     45529893255                       # Energy for self refresh per rank (pJ)
system.mem_ctrls1_0.totalEnergy          1118160822240                       # Total energy per rank (pJ)
system.mem_ctrls1_0.averagePower           529.575018                       # Core power per rank (mW)
system.mem_ctrls1_0.totalIdleTime        1859563560392                       # Total Idle time Per DRAM Rank
system.mem_ctrls1_0.memoryStateTime::IDLE   5939399285                       # Time in different power states
system.mem_ctrls1_0.memoryStateTime::REF  69405730000                       # Time in different power states
system.mem_ctrls1_0.memoryStateTime::SREF 152550394360                       # Time in different power states
system.mem_ctrls1_0.memoryStateTime::PRE_PDN 314165290592                       # Time in different power states
system.mem_ctrls1_0.memoryStateTime::ACT 176521709821                       # Time in different power states
system.mem_ctrls1_0.memoryStateTime::ACT_PDN 1392847919621                       # Time in different power states
system.mem_ctrls1_1.actEnergy              9816878820                       # Energy for activate commands per rank (pJ)
system.mem_ctrls1_1.preEnergy              5217775860                       # Energy for precharge commands per rank (pJ)
system.mem_ctrls1_1.readEnergy            19241950140                       # Energy for read commands per rank (pJ)
system.mem_ctrls1_1.writeEnergy            4613321160                       # Energy for write commands per rank (pJ)
system.mem_ctrls1_1.refreshEnergy        163344882480.000031                       # Energy for refresh commands per rank (pJ)
system.mem_ctrls1_1.actBackEnergy        108229526340                       # Energy for active background per rank (pJ)
system.mem_ctrls1_1.preBackEnergy          5716706880                       # Energy for precharge background per rank (pJ)
system.mem_ctrls1_1.actPowerDownEnergy   630991662120                       # Energy for active power-down per rank (pJ)
system.mem_ctrls1_1.prePowerDownEnergy   120722244000                       # Energy for precharge power-down per rank (pJ)
system.mem_ctrls1_1.selfRefreshEnergy     47718993720                       # Energy for self refresh per rank (pJ)
system.mem_ctrls1_1.totalEnergy          1115649640560                       # Total energy per rank (pJ)
system.mem_ctrls1_1.averagePower           528.385688                       # Core power per rank (mW)
system.mem_ctrls1_1.totalIdleTime        1859128210496                       # Total Idle time Per DRAM Rank
system.mem_ctrls1_1.memoryStateTime::IDLE   6042017784                       # Time in different power states
system.mem_ctrls1_1.memoryStateTime::REF  69198352000                       # Time in different power states
system.mem_ctrls1_1.memoryStateTime::SREF 160983888321                       # Time in different power states
system.mem_ctrls1_1.memoryStateTime::PRE_PDN 314379913742                       # Time in different power states
system.mem_ctrls1_1.memoryStateTime::ACT 177061863399                       # Time in different power states
system.mem_ctrls1_1.memoryStateTime::ACT_PDN 1383764408433                       # Time in different power states
system.pwrStateResidencyTicks::UNDEFINED 75381584244381                       # Cumulative time (in ticks) in various power states
system.cpu.branchPred.lookups                       2                       # Number of BP lookups
system.cpu.branchPred.condPredicted                 2                       # Number of conditional branches predicted
system.cpu.branchPred.condIncorrect                 1                       # Number of conditional branches incorrect
system.cpu.branchPred.BTBLookups                    0                       # Number of BTB lookups
system.cpu.branchPred.BTBHits                       0                       # Number of BTB hits
system.cpu.branchPred.BTBCorrect                    0                       # Number of correct BTB predictions (this stat may not work properly.
system.cpu.branchPred.BTBHitPct                   nan                       # BTB Hit Percentage
system.cpu.branchPred.usedRAS                       0                       # Number of times the RAS was used to get a target.
system.cpu.branchPred.RASInCorrect                  0                       # Number of incorrect RAS predictions.
system.cpu.branchPred.indirectLookups               0                       # Number of indirect predictor lookups.
system.cpu.branchPred.indirectHits                  0                       # Number of indirect target hits.
system.cpu.branchPred.indirectMisses                0                       # Number of indirect misses.
system.cpu.branchPredindirectMispredicted            0                       # Number of mispredicted indirect branches.
system.cpu_voltage_domain.voltage                   1                       # Voltage in Volts
system.cpu_clk_domain.clock                       333                       # Clock period in ticks
system.cpu.dtb.fetch_hits                           0                       # ITB hits
system.cpu.dtb.fetch_misses                         0                       # ITB misses
system.cpu.dtb.fetch_acv                            0                       # ITB acv
system.cpu.dtb.fetch_accesses                       0                       # ITB accesses
system.cpu.dtb.read_hits                           28                       # DTB read hits
system.cpu.dtb.read_misses                          0                       # DTB read misses
system.cpu.dtb.read_acv                             0                       # DTB read access violations
system.cpu.dtb.read_accesses                       28                       # DTB read accesses
system.cpu.dtb.write_hits                           3                       # DTB write hits
system.cpu.dtb.write_misses                         0                       # DTB write misses
system.cpu.dtb.write_acv                            0                       # DTB write access violations
system.cpu.dtb.write_accesses                       3                       # DTB write accesses
system.cpu.dtb.data_hits                           31                       # DTB hits
system.cpu.dtb.data_misses                          0                       # DTB misses
system.cpu.dtb.data_acv                             0                       # DTB access violations
system.cpu.dtb.data_accesses                       31                       # DTB accesses
system.cpu.itb.fetch_hits                           7                       # ITB hits
system.cpu.itb.fetch_misses                         0                       # ITB misses
system.cpu.itb.fetch_acv                            0                       # ITB acv
system.cpu.itb.fetch_accesses                       7                       # ITB accesses
system.cpu.itb.read_hits                            0                       # DTB read hits
system.cpu.itb.read_misses                          0                       # DTB read misses
system.cpu.itb.read_acv                             0                       # DTB read access violations
system.cpu.itb.read_accesses                        0                       # DTB read accesses
system.cpu.itb.write_hits                           0                       # DTB write hits
system.cpu.itb.write_misses                         0                       # DTB write misses
system.cpu.itb.write_acv                            0                       # DTB write access violations
system.cpu.itb.write_accesses                       0                       # DTB write accesses
system.cpu.itb.data_hits                            0                       # DTB hits
system.cpu.itb.data_misses                          0                       # DTB misses
system.cpu.itb.data_acv                             0                       # DTB access violations
system.cpu.itb.data_accesses                        0                       # DTB accesses
system.cpu.workload.num_syscalls                    0                       # Number of system calls
system.cpu.pwrStateResidencyTicks::ON    2111430443679                       # Cumulative time (in ticks) in various power states
system.cpu.numCycles                             1048                       # number of cpu cycles simulated
system.cpu.numWorkItemsStarted                      0                       # number of work items this cpu started
system.cpu.numWorkItemsCompleted                    0                       # number of work items this cpu completed
system.cpu.fetch.icacheStallCycles                 55                       # Number of cycles fetch is stalled on an Icache miss
system.cpu.fetch.Insts                             51                       # Number of instructions fetch has processed
system.cpu.fetch.Branches                           2                       # Number of branches that fetch encountered
system.cpu.fetch.Cycles                             7                       # Number of cycles fetch has run and was not squashing or blocked
system.cpu.fetch.SquashCycles                       5                       # Number of cycles fetch has spent squashing
system.cpu.fetch.PendingDrainCycles                10                       # Number of cycles fetch has spent waiting on pipes to drain
system.cpu.fetch.CacheLines                         7                       # Number of cache lines fetched
system.cpu.fetch.IcacheSquashes                     3                       # Number of outstanding Icache misses that were squashed
system.cpu.fetch.rateDist::samples                 74                       # Number of instructions fetched each cycle (Total)
system.cpu.fetch.rateDist::mean              0.689189                       # Number of instructions fetched each cycle (Total)
system.cpu.fetch.rateDist::stdev             2.189174                       # Number of instructions fetched each cycle (Total)
system.cpu.fetch.rateDist::underflows               0      0.00%      0.00% # Number of instructions fetched each cycle (Total)
system.cpu.fetch.rateDist::0                       67     90.54%     90.54% # Number of instructions fetched each cycle (Total)
system.cpu.fetch.rateDist::1                        0      0.00%     90.54% # Number of instructions fetched each cycle (Total)
system.cpu.fetch.rateDist::2                        0      0.00%     90.54% # Number of instructions fetched each cycle (Total)
system.cpu.fetch.rateDist::3                        0      0.00%     90.54% # Number of instructions fetched each cycle (Total)
[...]
system.switch_cpus_1.iq.int_inst_queue_writes    358467118                       # Number of integer instruction queue writes
system.switch_cpus_1.iq.int_inst_queue_wakeup_accesses    350546265                       # Number of integer instruction queue wakeup accesses
system.switch_cpus_1.iq.fp_inst_queue_reads    379623142                       # Number of floating instruction queue reads
system.switch_cpus_1.iq.fp_inst_queue_writes    161646480                       # Number of floating instruction queue writes
system.switch_cpus_1.iq.fp_inst_queue_wakeup_accesses    156429363                       # Number of floating instruction queue wakeup accesses
system.switch_cpus_1.iq.int_alu_accesses    385354705                       # Number of integer alu accesses
system.switch_cpus_1.iq.fp_alu_accesses     203749533                       # Number of floating point alu accesses
system.switch_cpus_1.iew.lsq.thread0.forwLoads      3970396                       # Number of loads that had data forwarded from stores
system.switch_cpus_1.iew.lsq.thread0.invAddrLoads            0                       # Number of loads ignored due to an invalid address
system.switch_cpus_1.iew.lsq.thread0.squashedLoads      3466688                       # Number of loads squashed
system.switch_cpus_1.iew.lsq.thread0.ignoredResponses         1808                       # Number of memory responses ignored because the instruction is squashed
system.switch_cpus_1.iew.lsq.thread0.memOrderViolation         1183                       # Number of memory ordering violations
system.switch_cpus_1.iew.lsq.thread0.squashedStores       648188                       # Number of stores squashed
system.switch_cpus_1.iew.lsq.thread0.invAddrSwpfs            0                       # Number of software prefetches ignored due to an invalid address
system.switch_cpus_1.iew.lsq.thread0.blockedLoads            0                       # Number of blocked loads due to partial load-store forwarding
system.switch_cpus_1.iew.lsq.thread0.rescheduledLoads            0                       # Number of loads that were rescheduled
system.switch_cpus_1.iew.lsq.thread0.cacheBlocked     30580415                       # Number of times an access to memory failed due to the cache being blocked
system.switch_cpus_1.iew.iewIdleCycles              0                       # Number of cycles IEW is idle
system.switch_cpus_1.iew.iewSquashCycles       218116                       # Number of cycles IEW is squashing
system.switch_cpus_1.iew.iewBlockCycles     129797120                       # Number of cycles IEW is blocking
system.switch_cpus_1.iew.iewUnblockCycles     86157135                       # Number of cycles IEW is unblocking
system.switch_cpus_1.iew.iewDispatchedInsts    510268421                       # Number of instructions dispatched to IQ
system.switch_cpus_1.iew.iewDispSquashedInsts       186106                       # Number of squashed instructions skipped by dispatch
system.switch_cpus_1.iew.iewDispLoadInsts    165993254                       # Number of dispatched load instructions
system.switch_cpus_1.iew.iewDispStoreInsts     28268432                       # Number of dispatched store instructions
system.switch_cpus_1.iew.iewDispNonSpecInsts          220                       # Number of dispatched non-speculative instructions
system.switch_cpus_1.iew.iewIQFullEvents       843048                       # Number of times the IQ has become full, causing a stall
system.switch_cpus_1.iew.iewLSQFullEvents     84595636                       # Number of times the LSQ has become full, causing a stall
system.switch_cpus_1.iew.memOrderViolationEvents         1183                       # Number of memory order violations
system.switch_cpus_1.iew.predictedTakenIncorrect       135714                       # Number of branches that were predicted taken incorrectly
system.switch_cpus_1.iew.predictedNotTakenIncorrect         1711                       # Number of branches that were predicted not taken incorrectly
system.switch_cpus_1.iew.branchMispredicts       137425                       # Number of branch mispredicts detected at execute
system.switch_cpus_1.iew.iewExecutedInsts    537469452                       # Number of executed instructions
system.switch_cpus_1.iew.iewExecLoadInsts    195272986                       # Number of load instructions executed
system.switch_cpus_1.iew.iewExecSquashedInsts       316912                       # Number of squashed instructions skipped in execute
system.switch_cpus_1.iew.exec_swp                   0                       # number of swp insts executed
system.switch_cpus_1.iew.exec_nop              212168                       # number of nop insts executed
system.switch_cpus_1.iew.exec_refs          223117409                       # number of memory reference insts executed
system.switch_cpus_1.iew.exec_branches       15229949                       # Number of branches executed
system.switch_cpus_1.iew.exec_stores         27844423                       # Number of stores executed
system.switch_cpus_1.iew.exec_rate           0.734777                       # Inst execution rate
system.switch_cpus_1.iew.wb_sent            507486681                       # cumulative count of insts sent to commit
system.switch_cpus_1.iew.wb_count           506975628                       # cumulative count of insts written-back
system.switch_cpus_1.iew.wb_producers       341078872                       # num instructions producing a value
system.switch_cpus_1.iew.wb_consumers       375285086                       # num instructions consuming a value
system.switch_cpus_1.iew.wb_rate             0.693089                       # insts written-back per cycle
system.switch_cpus_1.iew.wb_fanout           0.908853                       # average fanout of values written-back
system.switch_cpus_1.commit.commitSquashedInsts      9453330                       # The number of squashed insts skipped by commit
system.switch_cpus_1.commit.commitNonSpecStalls          312                       # The number of times commit has been forced to stall to communicate backwards
system.switch_cpus_1.commit.branchMispredicts       130832                       # The number of times a branch was mispredicted
system.switch_cpus_1.commit.committed_per_cycle::samples    730111444                       # Number of insts commited each cycle
system.switch_cpus_1.commit.committed_per_cycle::mean     0.685085                       # Number of insts commited each cycle
system.switch_cpus_1.commit.committed_per_cycle::stdev     2.085016                       # Number of insts commited each cycle
system.switch_cpus_1.commit.committed_per_cycle::underflows            0      0.00%      0.00% # Number of insts commited each cycle
system.switch_cpus_1.commit.committed_per_cycle::0    636068219     87.12%     87.12% # Number of insts commited each cycle
system.switch_cpus_1.commit.committed_per_cycle::1     22845159      3.13%     90.25% # Number of insts commited each cycle
system.switch_cpus_1.commit.committed_per_cycle::2      4472704      0.61%     90.86% # Number of insts commited each cycle
system.switch_cpus_1.commit.committed_per_cycle::3      5165788      0.71%     91.57% # Number of insts commited each cycle
system.switch_cpus_1.commit.committed_per_cycle::4      5003801      0.69%     92.25% # Number of insts commited each cycle
system.switch_cpus_1.commit.committed_per_cycle::5      3031476      0.42%     92.67% # Number of insts commited each cycle
system.switch_cpus_1.commit.committed_per_cycle::6      2523535      0.35%     93.01% # Number of insts commited each cycle
system.switch_cpus_1.commit.committed_per_cycle::7      5419476      0.74%     93.76% # Number of insts commited each cycle
system.switch_cpus_1.commit.committed_per_cycle::8     45581286      6.24%    100.00% # Number of insts commited each cycle
system.switch_cpus_1.commit.committed_per_cycle::overflows            0      0.00%    100.00% # Number of insts commited each cycle
system.switch_cpus_1.commit.committed_per_cycle::min_value            0                       # Number of insts commited each cycle
system.switch_cpus_1.commit.committed_per_cycle::max_value            8                       # Number of insts commited each cycle
system.switch_cpus_1.commit.committed_per_cycle::total    730111444                       # Number of insts commited each cycle
system.switch_cpus_1.commit.committedInsts    500188345                       # Number of instructions committed
system.switch_cpus_1.commit.committedOps    500188345                       # Number of ops (including micro ops) committed
system.switch_cpus_1.commit.swp_count               0                       # Number of s/w prefetches committed
system.switch_cpus_1.commit.refs            190146782                       # Number of memory references committed
system.switch_cpus_1.commit.loads           162526542                       # Number of loads committed
system.switch_cpus_1.commit.membars               156                       # Number of memory barriers committed
system.switch_cpus_1.commit.branches         14859026                       # Number of branches committed
system.switch_cpus_1.commit.fp_insts        155259316                       # Number of committed floating point instructions.
system.switch_cpus_1.commit.int_insts       424637432                       # Number of committed integer instructions.
system.switch_cpus_1.commit.function_calls          162                       # Number of function calls committed.
system.switch_cpus_1.commit.op_class_0::No_OpClass       188344      0.04%      0.04% # Class of committed instruction
system.switch_cpus_1.commit.op_class_0::IntAlu    181816044     36.35%     36.39% # Class of committed instruction
system.switch_cpus_1.commit.op_class_0::IntMult     52727404     10.54%     46.93% # Class of committed instruction
system.switch_cpus_1.commit.op_class_0::IntDiv            0      0.00%     46.93% # Class of committed instruction
system.switch_cpus_1.commit.op_class_0::FloatAdd     36987680      7.39%     54.32% # Class of committed instruction
system.switch_cpus_1.commit.op_class_0::FloatCmp            0      0.00%     54.32% # Class of committed instruction
system.switch_cpus_1.commit.op_class_0::FloatCvt         6610      0.00%     54.32% # Class of committed instruction
system.switch_cpus_1.commit.op_class_0::FloatMult     34710316      6.94%     61.26% # Class of committed instruction
system.switch_cpus_1.commit.op_class_0::FloatMultAcc            0      0.00%     61.26% # Class of committed instruction
system.switch_cpus_1.commit.op_class_0::FloatDiv      3208409      0.64%     61.91% # Class of committed instruction
system.switch_cpus_1.commit.op_class_0::FloatMisc            0      0.00%     61.91% # Class of committed instruction
system.switch_cpus_1.commit.op_class_0::FloatSqrt       396600      0.08%     61.98% # Class of committed instruction
system.switch_cpus_1.commit.op_class_0::SimdAdd            0      0.00%     61.98% # Class of committed instruction
system.switch_cpus_1.commit.op_class_0::SimdAddAcc            0      0.00%     61.98% # Class of committed instruction
system.switch_cpus_1.commit.op_class_0::SimdAlu            0      0.00%     61.98% # Class of committed instruction
system.switch_cpus_1.commit.op_class_0::SimdCmp            0      0.00%     61.98% # Class of committed instruction
system.switch_cpus_1.commit.op_class_0::SimdCvt            0      0.00%     61.98% # Class of committed instruction
system.switch_cpus_1.commit.op_class_0::SimdMisc            0      0.00%     61.98% # Class of committed instruction
system.switch_cpus_1.commit.op_class_0::SimdMult            0      0.00%     61.98% # Class of committed instruction
system.switch_cpus_1.commit.op_class_0::SimdMultAcc            0      0.00%     61.98% # Class of committed instruction
system.switch_cpus_1.commit.op_class_0::SimdShift            0      0.00%     61.98% # Class of committed instruction
system.switch_cpus_1.commit.op_class_0::SimdShiftAcc            0      0.00%     61.98% # Class of committed instruction
system.switch_cpus_1.commit.op_class_0::SimdSqrt            0      0.00%     61.98% # Class of committed instruction
system.switch_cpus_1.commit.op_class_0::SimdFloatAdd            0      0.00%     61.98% # Class of committed instruction
system.switch_cpus_1.commit.op_class_0::SimdFloatAlu            0      0.00%     61.98% # Class of committed instruction
system.switch_cpus_1.commit.op_class_0::SimdFloatCmp            0      0.00%     61.98% # Class of committed instruction
system.switch_cpus_1.commit.op_class_0::SimdFloatCvt            0      0.00%     61.98% # Class of committed instruction
system.switch_cpus_1.commit.op_class_0::SimdFloatDiv            0      0.00%     61.98% # Class of committed instruction
system.switch_cpus_1.commit.op_class_0::SimdFloatMisc            0      0.00%     61.98% # Class of committed instruction
system.switch_cpus_1.commit.op_class_0::SimdFloatMult            0      0.00%     61.98% # Class of committed instruction
system.switch_cpus_1.commit.op_class_0::SimdFloatMultAcc            0      0.00%     61.98% # Class of committed instruction
system.switch_cpus_1.commit.op_class_0::SimdFloatSqrt            0      0.00%     61.98% # Class of committed instruction
system.switch_cpus_1.commit.op_class_0::MemRead    102286796     20.45%     82.43% # Class of committed instruction
system.switch_cpus_1.commit.op_class_0::MemWrite      7910441      1.58%     84.02% # Class of committed instruction
system.switch_cpus_1.commit.op_class_0::FloatMemRead     60239902     12.04%     96.06% # Class of committed instruction
system.switch_cpus_1.commit.op_class_0::FloatMemWrite     19709799      3.94%    100.00% # Class of committed instruction
system.switch_cpus_1.commit.op_class_0::IprAccess            0      0.00%    100.00% # Class of committed instruction
system.switch_cpus_1.commit.op_class_0::InstPrefetch            0      0.00%    100.00% # Class of committed instruction
system.switch_cpus_1.commit.op_class_0::total    500188345                       # Class of committed instruction
system.switch_cpus_1.commit.bw_lim_events     45581286                       # number cycles where commit BW limit reached
system.switch_cpus_1.rob.rob_reads         1193049790                       # The number of ROB reads
system.switch_cpus_1.rob.rob_writes        1020561116                       # The number of ROB writes
system.switch_cpus_1.timesIdled                   551                       # Number of times that the entire CPU went into an idle state and unscheduled itself
system.switch_cpus_1.idleCycles                 84005                       # Total number of cycles that the CPU has spent unscheduled due to idling
system.switch_cpus_1.committedInsts         500000001                       # Number of Instructions Simulated
system.switch_cpus_1.committedOps           500000001                       # Number of Ops (including micro ops) Simulated
system.switch_cpus_1.cpi                     1.462946                       # CPI: Cycles Per Instruction
system.switch_cpus_1.cpi_total               1.462946                       # CPI: Total CPI of All Threads
system.switch_cpus_1.ipc                     0.683552                       # IPC: Instructions Per Cycle
system.switch_cpus_1.ipc_total               0.683552                       # IPC: Total IPC of All Threads
system.switch_cpus_1.int_regfile_reads      655383599                       # number of integer regfile reads
system.switch_cpus_1.int_regfile_writes     327400280                       # number of integer regfile writes
system.switch_cpus_1.fp_regfile_reads       170901104                       # number of floating regfile reads
system.switch_cpus_1.fp_regfile_writes      136658444                       # number of floating regfile writes
system.switch_cpus_1.misc_regfile_reads           351                       # number of misc regfile reads
system.switch_cpus_1.misc_regfile_writes          312                       # number of misc regfile writes
system.tol3bus.snoop_filter.tot_requests     27163816                       # Total number of requests made to the snoop filter.
system.tol3bus.snoop_filter.hit_single_requests     13579601                       # Number of requests hitting in the snoop filter with a single holder of the requested data.
system.tol3bus.snoop_filter.hit_multi_requests            0                       # Number of requests hitting in the snoop filter with multiple (>1) holders of the requested data.
system.tol3bus.snoop_filter.tot_snoops           2743                       # Total number of snoops made to the snoop filter.
system.tol3bus.snoop_filter.hit_single_snoops         2743                       # Number of snoops hitting in the snoop filter with a single holder of the requested data.
system.tol3bus.snoop_filter.hit_multi_snoops            0                       # Number of snoops hitting in the snoop filter with multiple (>1) holders of the requested data.
system.tol3bus.pwrStateResidencyTicks::UNDEFINED 75381584244381                       # Cumulative time (in ticks) in various power states
system.tol3bus.trans_dist::ReadResp          10470794                       # Transaction distribution
system.tol3bus.trans_dist::WritebackDirty      7888777                       # Transaction distribution
system.tol3bus.trans_dist::CleanEvict        16450938                       # Transaction distribution
system.tol3bus.trans_dist::ReadExReq          3113421                       # Transaction distribution
system.tol3bus.trans_dist::ReadExResp         3113419                       # Transaction distribution
system.tol3bus.trans_dist::ReadSharedReq     10470794                       # Transaction distribution
system.tol3bus.pkt_count_system.cpu.l2.mem_side::system.l3.cpu_side     40748029                       # Packet count per connected master and slave (bytes)
system.tol3bus.pkt_size_system.cpu.l2.mem_side::system.l3.cpu_side   1146590976                       # Cumulative packet size per connected master and slave (bytes)
system.tol3bus.snoops                        10760114                       # Total snoops (count)
system.tol3bus.snoopTraffic                 227680384                       # Total snoop traffic (bytes)
system.tol3bus.snoop_fanout::samples         24344329                       # Request fanout histogram
system.tol3bus.snoop_fanout::mean            0.000113                       # Request fanout histogram
system.tol3bus.snoop_fanout::stdev           0.010614                       # Request fanout histogram
system.tol3bus.snoop_fanout::underflows             0      0.00%      0.00% # Request fanout histogram
system.tol3bus.snoop_fanout::0               24341586     99.99%     99.99% # Request fanout histogram
system.tol3bus.snoop_fanout::1                   2743      0.01%    100.00% # Request fanout histogram
system.tol3bus.snoop_fanout::overflows              0      0.00%    100.00% # Request fanout histogram
system.tol3bus.snoop_fanout::min_value              0                       # Request fanout histogram
system.tol3bus.snoop_fanout::max_value              1                       # Request fanout histogram
system.tol3bus.snoop_fanout::total           24344329                       # Request fanout histogram
system.tol3bus.reqLayer0.occupancy        10487863971                       # Layer occupancy (ticks)
system.tol3bus.reqLayer0.utilization              0.5                       # Layer utilization (%)
system.tol3bus.respLayer0.occupancy        9047085858                       # Layer occupancy (ticks)
system.tol3bus.respLayer0.utilization             0.4                       # Layer utilization (%)

---------- End Simulation Statistics   ----------
