
---------- Begin Simulation Statistics ----------
sim_seconds                                 30.763494                       # Number of seconds simulated
sim_ticks                                30763493673282                       # Number of ticks simulated
final_tick                               192845676835782                       # Number of ticks from beginning of simulation (restored from checkpoints and never reset)
sim_freq                                 1000000000000                       # Frequency of simulated ticks
host_inst_rate                                  14298                       # Simulator instruction rate (inst/s)
host_op_rate                                    14298                       # Simulator op (including micro ops) rate (op/s)
host_tick_rate                              219924039                       # Simulator tick rate (ticks/s)
host_mem_usage                                2689748                       # Number of bytes of host memory used
host_seconds                                139882.36                       # Real time elapsed on the host
sim_insts                                  2000000005                       # Number of instructions simulated
sim_ops                                    2000000005                       # Number of ops (including micro ops) simulated
system.voltage_domain.voltage                       1                       # Voltage in Volts
system.clk_domain.clock                          1000                       # Clock period in ticks
system.mem_ctrls0.pwrStateResidencyTicks::UNDEFINED 192845676835782                       # Cumulative time (in ticks) in various power states
system.mem_ctrls0.bytes_read::cpu.inst            128                       # Number of bytes read from this memory
system.mem_ctrls0.bytes_read::switch_cpus.inst         1472                       # Number of bytes read from this memory
system.mem_ctrls0.bytes_read::switch_cpus.data   1931170368                       # Number of bytes read from this memory
system.mem_ctrls0.bytes_read::switch_cpus_1.inst          384                       # Number of bytes read from this memory
system.mem_ctrls0.bytes_read::switch_cpus_1.data   1900221312                       # Number of bytes read from this memory
system.mem_ctrls0.bytes_read::total        3831393664                       # Number of bytes read from this memory
system.mem_ctrls0.bytes_inst_read::cpu.inst          128                       # Number of instructions bytes read from this memory
system.mem_ctrls0.bytes_inst_read::switch_cpus.inst         1472                       # Number of instructions bytes read from this memory
system.mem_ctrls0.bytes_inst_read::switch_cpus_1.inst          384                       # Number of instructions bytes read from this memory
system.mem_ctrls0.bytes_inst_read::total         1984                       # Number of instructions bytes read from this memory
system.mem_ctrls0.bytes_written::writebacks      7297920                       # Number of bytes written to this memory
system.mem_ctrls0.bytes_written::total        7297920                       # Number of bytes written to this memory
system.mem_ctrls0.num_reads::cpu.inst               2                       # Number of read requests responded to by this memory
system.mem_ctrls0.num_reads::switch_cpus.inst           23                       # Number of read requests responded to by this memory
system.mem_ctrls0.num_reads::switch_cpus.data     30174537                       # Number of read requests responded to by this memory
system.mem_ctrls0.num_reads::switch_cpus_1.inst            6                       # Number of read requests responded to by this memory
system.mem_ctrls0.num_reads::switch_cpus_1.data     29690958                       # Number of read requests responded to by this memory
system.mem_ctrls0.num_reads::total           59865526                       # Number of read requests responded to by this memory
system.mem_ctrls0.num_writes::writebacks       114030                       # Number of write requests responded to by this memory
system.mem_ctrls0.num_writes::total            114030                       # Number of write requests responded to by this memory
system.mem_ctrls0.bw_read::cpu.inst                 4                       # Total read bandwidth from this memory (bytes/s)
system.mem_ctrls0.bw_read::switch_cpus.inst           48                       # Total read bandwidth from this memory (bytes/s)
system.mem_ctrls0.bw_read::switch_cpus.data     62774742                       # Total read bandwidth from this memory (bytes/s)
system.mem_ctrls0.bw_read::switch_cpus_1.inst           12                       # Total read bandwidth from this memory (bytes/s)
system.mem_ctrls0.bw_read::switch_cpus_1.data     61768710                       # Total read bandwidth from this memory (bytes/s)
system.mem_ctrls0.bw_read::total            124543516                       # Total read bandwidth from this memory (bytes/s)
system.mem_ctrls0.bw_inst_read::cpu.inst            4                       # Instruction read bandwidth from this memory (bytes/s)
system.mem_ctrls0.bw_inst_read::switch_cpus.inst           48                       # Instruction read bandwidth from this memory (bytes/s)
system.mem_ctrls0.bw_inst_read::switch_cpus_1.inst           12                       # Instruction read bandwidth from this memory (bytes/s)
system.mem_ctrls0.bw_inst_read::total              64                       # Instruction read bandwidth from this memory (bytes/s)
system.mem_ctrls0.bw_write::writebacks         237227                       # Write bandwidth from this memory (bytes/s)
system.mem_ctrls0.bw_write::total              237227                       # Write bandwidth from this memory (bytes/s)
system.mem_ctrls0.bw_total::writebacks         237227                       # Total bandwidth to/from this memory (bytes/s)
system.mem_ctrls0.bw_total::cpu.inst                4                       # Total bandwidth to/from this memory (bytes/s)
system.mem_ctrls0.bw_total::switch_cpus.inst           48                       # Total bandwidth to/from this memory (bytes/s)
system.mem_ctrls0.bw_total::switch_cpus.data     62774742                       # Total bandwidth to/from this memory (bytes/s)
system.mem_ctrls0.bw_total::switch_cpus_1.inst           12                       # Total bandwidth to/from this memory (bytes/s)
system.mem_ctrls0.bw_total::switch_cpus_1.data     61768710                       # Total bandwidth to/from this memory (bytes/s)
system.mem_ctrls0.bw_total::total           124780743                       # Total bandwidth to/from this memory (bytes/s)
system.mem_ctrls0.readReqs                   59865526                       # Number of read requests accepted
system.mem_ctrls0.writeReqs                    114030                       # Number of write requests accepted
system.mem_ctrls0.readBursts                 59865526                       # Number of DRAM read bursts, including those serviced by the write queue
system.mem_ctrls0.writeBursts                  114030                       # Number of DRAM write bursts, including those merged in the write queue
system.mem_ctrls0.bytesReadDRAM            3830708032                       # Total number of bytes read from DRAM
system.mem_ctrls0.bytesReadWrQ                 685632                       # Total number of bytes read from write queue
system.mem_ctrls0.bytesWritten                7250816                       # Total number of bytes written to DRAM
system.mem_ctrls0.bytesReadSys             3831393664                       # Total read bytes from the system interface side
system.mem_ctrls0.bytesWrittenSys             7297920                       # Total written bytes from the system interface side
system.mem_ctrls0.servicedByWrQ                 10713                       # Number of DRAM read bursts serviced by the write queue
system.mem_ctrls0.mergedWrBursts                  721                       # Number of DRAM write bursts merged with an existing one
system.mem_ctrls0.neitherReadNorWriteReqs            0                       # Number of requests that are neither read nor write
system.mem_ctrls0.perBankRdBursts::0          3719278                       # Per bank write bursts
system.mem_ctrls0.perBankRdBursts::1          3723769                       # Per bank write bursts
system.mem_ctrls0.perBankRdBursts::2          3754929                       # Per bank write bursts
system.mem_ctrls0.perBankRdBursts::3          3746492                       # Per bank write bursts
system.mem_ctrls0.perBankRdBursts::4          3766087                       # Per bank write bursts
system.mem_ctrls0.perBankRdBursts::5          3743738                       # Per bank write bursts
system.mem_ctrls0.perBankRdBursts::6          3782339                       # Per bank write bursts
system.mem_ctrls0.perBankRdBursts::7          3695163                       # Per bank write bursts
system.mem_ctrls0.perBankRdBursts::8          3766794                       # Per bank write bursts
system.mem_ctrls0.perBankRdBursts::9          3760198                       # Per bank write bursts
system.mem_ctrls0.perBankRdBursts::10         3751629                       # Per bank write bursts
system.mem_ctrls0.perBankRdBursts::11         3767944                       # Per bank write bursts
system.mem_ctrls0.perBankRdBursts::12         3763267                       # Per bank write bursts
system.mem_ctrls0.perBankRdBursts::13         3708552                       # Per bank write bursts
system.mem_ctrls0.perBankRdBursts::14         3724647                       # Per bank write bursts
system.mem_ctrls0.perBankRdBursts::15         3679987                       # Per bank write bursts
system.mem_ctrls0.perBankWrBursts::0             6880                       # Per bank write bursts
system.mem_ctrls0.perBankWrBursts::1             6970                       # Per bank write bursts
system.mem_ctrls0.perBankWrBursts::2             7143                       # Per bank write bursts
system.mem_ctrls0.perBankWrBursts::3             7389                       # Per bank write bursts
system.mem_ctrls0.perBankWrBursts::4             7319                       # Per bank write bursts
system.mem_ctrls0.perBankWrBursts::5             7167                       # Per bank write bursts
system.mem_ctrls0.perBankWrBursts::6             7038                       # Per bank write bursts
system.mem_ctrls0.perBankWrBursts::7             7291                       # Per bank write bursts
system.mem_ctrls0.perBankWrBursts::8             7211                       # Per bank write bursts
system.mem_ctrls0.perBankWrBursts::9             6907                       # Per bank write bursts
system.mem_ctrls0.perBankWrBursts::10            6951                       # Per bank write bursts
system.mem_ctrls0.perBankWrBursts::11            7118                       # Per bank write bursts
system.mem_ctrls0.perBankWrBursts::12            7020                       # Per bank write bursts
system.mem_ctrls0.perBankWrBursts::13            6881                       # Per bank write bursts
system.mem_ctrls0.perBankWrBursts::14            6984                       # Per bank write bursts
system.mem_ctrls0.perBankWrBursts::15            7025                       # Per bank write bursts
system.mem_ctrls0.numRdRetry                        0                       # Number of times read queue was full causing retry
system.mem_ctrls0.numWrRetry                        0                       # Number of times write queue was full causing retry
system.mem_ctrls0.totGap                 30763493180865                       # Total gap between requests
system.mem_ctrls0.readPktSize::0                    0                       # Read request sizes (log2)
system.mem_ctrls0.readPktSize::1                    0                       # Read request sizes (log2)
system.mem_ctrls0.readPktSize::2                    0                       # Read request sizes (log2)
system.mem_ctrls0.readPktSize::3                    0                       # Read request sizes (log2)
system.mem_ctrls0.readPktSize::4                    0                       # Read request sizes (log2)
system.mem_ctrls0.readPktSize::5                    0                       # Read request sizes (log2)
system.mem_ctrls0.readPktSize::6             59865526                       # Read request sizes (log2)
system.mem_ctrls0.writePktSize::0                   0                       # Write request sizes (log2)
system.mem_ctrls0.writePktSize::1                   0                       # Write request sizes (log2)
system.mem_ctrls0.writePktSize::2                   0                       # Write request sizes (log2)
system.mem_ctrls0.writePktSize::3                   0                       # Write request sizes (log2)
system.mem_ctrls0.writePktSize::4                   0                       # Write request sizes (log2)
system.mem_ctrls0.writePktSize::5                   0                       # Write request sizes (log2)
system.mem_ctrls0.writePktSize::6              114030                       # Write request sizes (log2)
system.mem_ctrls0.rdQLenPdf::0               59819595                       # What read queue length does an incoming req see
system.mem_ctrls0.rdQLenPdf::1                  31886                       # What read queue length does an incoming req see
system.mem_ctrls0.rdQLenPdf::2                   3190                       # What read queue length does an incoming req see
system.mem_ctrls0.rdQLenPdf::3                    142                       # What read queue length does an incoming req see
system.mem_ctrls0.rdQLenPdf::4                      0                       # What read queue length does an incoming req see
system.mem_ctrls0.rdQLenPdf::5                      0                       # What read queue length does an incoming req see
system.mem_ctrls0.rdQLenPdf::6                      0                       # What read queue length does an incoming req see
system.mem_ctrls0.rdQLenPdf::7                      0                       # What read queue length does an incoming req see
system.mem_ctrls0.rdQLenPdf::8                      0                       # What read queue length does an incoming req see
system.mem_ctrls0.rdQLenPdf::9                      0                       # What read queue length does an incoming req see
system.mem_ctrls0.rdQLenPdf::10                     0                       # What read queue length does an incoming req see
system.mem_ctrls0.rdQLenPdf::11                     0                       # What read queue length does an incoming req see
system.mem_ctrls0.rdQLenPdf::12                     0                       # What read queue length does an incoming req see
system.mem_ctrls0.rdQLenPdf::13                     0                       # What read queue length does an incoming req see
system.mem_ctrls0.rdQLenPdf::14                     0                       # What read queue length does an incoming req see
system.mem_ctrls0.rdQLenPdf::15                     0                       # What read queue length does an incoming req see
system.mem_ctrls0.rdQLenPdf::16                     0                       # What read queue length does an incoming req see
system.mem_ctrls0.rdQLenPdf::17                     0                       # What read queue length does an incoming req see
system.mem_ctrls0.rdQLenPdf::18                     0                       # What read queue length does an incoming req see
system.mem_ctrls0.rdQLenPdf::19                     0                       # What read queue length does an incoming req see
system.mem_ctrls0.rdQLenPdf::20                     0                       # What read queue length does an incoming req see
system.mem_ctrls0.rdQLenPdf::21                     0                       # What read queue length does an incoming req see
system.mem_ctrls0.rdQLenPdf::22                     0                       # What read queue length does an incoming req see
system.mem_ctrls0.rdQLenPdf::23                     0                       # What read queue length does an incoming req see
system.mem_ctrls0.rdQLenPdf::24                     0                       # What read queue length does an incoming req see
system.mem_ctrls0.rdQLenPdf::25                     0                       # What read queue length does an incoming req see
system.mem_ctrls0.rdQLenPdf::26                     0                       # What read queue length does an incoming req see
system.mem_ctrls0.rdQLenPdf::27                     0                       # What read queue length does an incoming req see
system.mem_ctrls0.rdQLenPdf::28                     0                       # What read queue length does an incoming req see
system.mem_ctrls0.rdQLenPdf::29                     0                       # What read queue length does an incoming req see
system.mem_ctrls0.rdQLenPdf::30                     0                       # What read queue length does an incoming req see
system.mem_ctrls0.rdQLenPdf::31                     0                       # What read queue length does an incoming req see
system.mem_ctrls0.wrQLenPdf::0                      2                       # What write queue length does an incoming req see
system.mem_ctrls0.wrQLenPdf::1                      2                       # What write queue length does an incoming req see
system.mem_ctrls0.wrQLenPdf::2                      2                       # What write queue length does an incoming req see
system.mem_ctrls0.wrQLenPdf::3                      2                       # What write queue length does an incoming req see
system.mem_ctrls0.wrQLenPdf::4                      2                       # What write queue length does an incoming req see
system.mem_ctrls0.wrQLenPdf::5                      2                       # What write queue length does an incoming req see
system.mem_ctrls0.wrQLenPdf::6                      2                       # What write queue length does an incoming req see
system.mem_ctrls0.wrQLenPdf::7                      2                       # What write queue length does an incoming req see
system.mem_ctrls0.wrQLenPdf::8                      2                       # What write queue length does an incoming req see
system.mem_ctrls0.wrQLenPdf::9                      2                       # What write queue length does an incoming req see
system.mem_ctrls0.wrQLenPdf::10                     2                       # What write queue length does an incoming req see
system.mem_ctrls0.wrQLenPdf::11                     2                       # What write queue length does an incoming req see
system.mem_ctrls0.wrQLenPdf::12                     2                       # What write queue length does an incoming req see
system.mem_ctrls0.wrQLenPdf::13                     2                       # What write queue length does an incoming req see
system.mem_ctrls0.wrQLenPdf::14                     2                       # What write queue length does an incoming req see
system.mem_ctrls0.wrQLenPdf::15                  5896                       # What write queue length does an incoming req see
system.mem_ctrls0.wrQLenPdf::16                  5943                       # What write queue length does an incoming req see
system.mem_ctrls0.wrQLenPdf::17                  6324                       # What write queue length does an incoming req see
system.mem_ctrls0.wrQLenPdf::18                  6339                       # What write queue length does an incoming req see
system.mem_ctrls0.wrQLenPdf::19                  6339                       # What write queue length does an incoming req see
system.mem_ctrls0.wrQLenPdf::20                  6343                       # What write queue length does an incoming req see
system.mem_ctrls0.wrQLenPdf::21                  6342                       # What write queue length does an incoming req see
system.mem_ctrls0.wrQLenPdf::22                  6352                       # What write queue length does an incoming req see
system.mem_ctrls0.wrQLenPdf::23                  6344                       # What write queue length does an incoming req see
system.mem_ctrls0.wrQLenPdf::24                  6336                       # What write queue length does an incoming req see
system.mem_ctrls0.wrQLenPdf::25                  6336                       # What write queue length does an incoming req see
system.mem_ctrls0.wrQLenPdf::26                  6339                       # What write queue length does an incoming req see
system.mem_ctrls0.wrQLenPdf::27                  6335                       # What write queue length does an incoming req see
system.mem_ctrls0.wrQLenPdf::28                  6338                       # What write queue length does an incoming req see
system.mem_ctrls0.wrQLenPdf::29                  6337                       # What write queue length does an incoming req see
system.mem_ctrls0.wrQLenPdf::30                  6365                       # What write queue length does an incoming req see
system.mem_ctrls0.wrQLenPdf::31                  6334                       # What write queue length does an incoming req see
system.mem_ctrls0.wrQLenPdf::32                  6334                       # What write queue length does an incoming req see
system.mem_ctrls0.wrQLenPdf::33                     3                       # What write queue length does an incoming req see
system.mem_ctrls0.wrQLenPdf::34                     0                       # What write queue length does an incoming req see
system.mem_ctrls0.wrQLenPdf::35                     0                       # What write queue length does an incoming req see
system.mem_ctrls0.wrQLenPdf::36                     0                       # What write queue length does an incoming req see
system.mem_ctrls0.wrQLenPdf::37                     0                       # What write queue length does an incoming req see
system.mem_ctrls0.wrQLenPdf::38                     0                       # What write queue length does an incoming req see
system.mem_ctrls0.wrQLenPdf::39                     0                       # What write queue length does an incoming req see
system.mem_ctrls0.wrQLenPdf::40                     0                       # What write queue length does an incoming req see
system.mem_ctrls0.wrQLenPdf::41                     0                       # What write queue length does an incoming req see
system.mem_ctrls0.wrQLenPdf::42                     0                       # What write queue length does an incoming req see
system.mem_ctrls0.wrQLenPdf::43                     0                       # What write queue length does an incoming req see
system.mem_ctrls0.wrQLenPdf::44                     0                       # What write queue length does an incoming req see
system.mem_ctrls0.wrQLenPdf::45                     0                       # What write queue length does an incoming req see
system.mem_ctrls0.wrQLenPdf::46                     0                       # What write queue length does an incoming req see
system.mem_ctrls0.wrQLenPdf::47                     0                       # What write queue length does an incoming req see
system.mem_ctrls0.wrQLenPdf::48                     0                       # What write queue length does an incoming req see
system.mem_ctrls0.wrQLenPdf::49                     0                       # What write queue length does an incoming req see
system.mem_ctrls0.wrQLenPdf::50                     0                       # What write queue length does an incoming req see
system.mem_ctrls0.wrQLenPdf::51                     0                       # What write queue length does an incoming req see
system.mem_ctrls0.wrQLenPdf::52                     0                       # What write queue length does an incoming req see
system.mem_ctrls0.wrQLenPdf::53                     0                       # What write queue length does an incoming req see
system.mem_ctrls0.wrQLenPdf::54                     0                       # What write queue length does an incoming req see
system.mem_ctrls0.wrQLenPdf::55                     0                       # What write queue length does an incoming req see
system.mem_ctrls0.wrQLenPdf::56                     0                       # What write queue length does an incoming req see
system.mem_ctrls0.wrQLenPdf::57                     0                       # What write queue length does an incoming req see
system.mem_ctrls0.wrQLenPdf::58                     0                       # What write queue length does an incoming req see
system.mem_ctrls0.wrQLenPdf::59                     0                       # What write queue length does an incoming req see
system.mem_ctrls0.wrQLenPdf::60                     0                       # What write queue length does an incoming req see
system.mem_ctrls0.wrQLenPdf::61                     0                       # What write queue length does an incoming req see
system.mem_ctrls0.wrQLenPdf::62                     0                       # What write queue length does an incoming req see
system.mem_ctrls0.wrQLenPdf::63                     0                       # What write queue length does an incoming req see
system.mem_ctrls0.bytesPerActivate::samples     59807232                       # Bytes accessed per row activation
system.mem_ctrls0.bytesPerActivate::mean    64.172153                       # Bytes accessed per row activation
system.mem_ctrls0.bytesPerActivate::gmean    64.098189                       # Bytes accessed per row activation
system.mem_ctrls0.bytesPerActivate::stdev     5.098325                       # Bytes accessed per row activation
system.mem_ctrls0.bytesPerActivate::0-127     59699955     99.82%     99.82% # Bytes accessed per row activation
system.mem_ctrls0.bytesPerActivate::128-255        94820      0.16%     99.98% # Bytes accessed per row activation
system.mem_ctrls0.bytesPerActivate::256-383         9214      0.02%     99.99% # Bytes accessed per row activation
system.mem_ctrls0.bytesPerActivate::384-511         2306      0.00%    100.00% # Bytes accessed per row activation
system.mem_ctrls0.bytesPerActivate::512-639          624      0.00%    100.00% # Bytes accessed per row activation
system.mem_ctrls0.bytesPerActivate::640-767          197      0.00%    100.00% # Bytes accessed per row activation
system.mem_ctrls0.bytesPerActivate::768-895           73      0.00%    100.00% # Bytes accessed per row activation
system.mem_ctrls0.bytesPerActivate::896-1023           23      0.00%    100.00% # Bytes accessed per row activation
system.mem_ctrls0.bytesPerActivate::1024-1151           20      0.00%    100.00% # Bytes accessed per row activation
system.mem_ctrls0.bytesPerActivate::total     59807232                       # Bytes accessed per row activation
system.mem_ctrls0.rdPerTurnAround::samples         6334                       # Reads before turning the bus around for writes
system.mem_ctrls0.rdPerTurnAround::mean   9449.143669                       # Reads before turning the bus around for writes
system.mem_ctrls0.rdPerTurnAround::gmean   218.687738                       # Reads before turning the bus around for writes
system.mem_ctrls0.rdPerTurnAround::stdev 134424.189696                       # Reads before turning the bus around for writes
system.mem_ctrls0.rdPerTurnAround::0-524287         6322     99.81%     99.81% # Reads before turning the bus around for writes
system.mem_ctrls0.rdPerTurnAround::524288-1.04858e+06            7      0.11%     99.92% # Reads before turning the bus around for writes
system.mem_ctrls0.rdPerTurnAround::1.04858e+06-1.57286e+06            3      0.05%     99.97% # Reads before turning the bus around for writes
system.mem_ctrls0.rdPerTurnAround::1.57286e+06-2.09715e+06            1      0.02%     99.98% # Reads before turning the bus around for writes
system.mem_ctrls0.rdPerTurnAround::9.43718e+06-9.96147e+06            1      0.02%    100.00% # Reads before turning the bus around for writes
system.mem_ctrls0.rdPerTurnAround::total         6334                       # Reads before turning the bus around for writes
system.mem_ctrls0.wrPerTurnAround::samples         6334                       # Writes before turning the bus around for reads
system.mem_ctrls0.wrPerTurnAround::mean     17.886644                       # Writes before turning the bus around for reads
system.mem_ctrls0.wrPerTurnAround::gmean    17.878861                       # Writes before turning the bus around for reads
system.mem_ctrls0.wrPerTurnAround::stdev     0.512378                       # Writes before turning the bus around for reads
system.mem_ctrls0.wrPerTurnAround::16             394      6.22%      6.22% # Writes before turning the bus around for reads
system.mem_ctrls0.wrPerTurnAround::17              44      0.69%      6.92% # Writes before turning the bus around for reads
system.mem_ctrls0.wrPerTurnAround::18            5787     91.36%     98.28% # Writes before turning the bus around for reads
system.mem_ctrls0.wrPerTurnAround::19             104      1.64%     99.92% # Writes before turning the bus around for reads
system.mem_ctrls0.wrPerTurnAround::20               5      0.08%    100.00% # Writes before turning the bus around for reads
system.mem_ctrls0.wrPerTurnAround::total         6334                       # Writes before turning the bus around for reads
system.mem_ctrls0.totQLat                1724818452222                       # Total ticks spent queuing
system.mem_ctrls0.totMemAccLat           2847096195972                       # Total ticks spent from burst creation until serviced by the DRAM
system.mem_ctrls0.totBusLat              299274065000                       # Total ticks spent in databus transfers
system.mem_ctrls0.avgQLat                    28816.70                       # Average queueing delay per DRAM burst
system.mem_ctrls0.avgBusLat                   5000.00                       # Average bus latency per DRAM burst
system.mem_ctrls0.avgMemAccLat               47566.70                       # Average memory access latency per DRAM burst
system.mem_ctrls0.avgRdBW                      124.52                       # Average DRAM read bandwidth in MiByte/s
system.mem_ctrls0.avgWrBW                        0.24                       # Average achieved write bandwidth in MiByte/s
system.mem_ctrls0.avgRdBWSys                   124.54                       # Average system read bandwidth in MiByte/s
system.mem_ctrls0.avgWrBWSys                     0.24                       # Average system write bandwidth in MiByte/s
system.mem_ctrls0.peakBW                     12800.00                       # Theoretical peak bandwidth in MiByte/s
system.mem_ctrls0.busUtil                        0.97                       # Data bus utilization in percentage
system.mem_ctrls0.busUtilRead                    0.97                       # Data bus utilization in percentage for reads
system.mem_ctrls0.busUtilWrite                   0.00                       # Data bus utilization in percentage for writes
system.mem_ctrls0.avgRdQLen                      1.00                       # Average read queue length when enqueuing
system.mem_ctrls0.avgWrQLen                     24.49                       # Average write queue length when enqueuing
system.mem_ctrls0.readRowHits                  123147                       # Number of row buffer hits during reads
system.mem_ctrls0.writeRowHits                  37728                       # Number of row buffer hits during writes
system.mem_ctrls0.readRowHitRate                 0.21                       # Row buffer hit rate for reads
system.mem_ctrls0.writeRowHitRate               33.30                       # Row buffer hit rate for writes
system.mem_ctrls0.avgGap                    512899.65                       # Average gap between requests
system.mem_ctrls0.pageHitRate                    0.27                       # Row buffer hit rate, read and write combined
system.mem_ctrls0_0.actEnergy            213549988680                       # Energy for activate commands per rank (pJ)
system.mem_ctrls0_0.preEnergy            113504510790                       # Energy for precharge commands per rank (pJ)
system.mem_ctrls0_0.readEnergy           213713016300                       # Energy for read commands per rank (pJ)
system.mem_ctrls0_0.writeEnergy             298568340                       # Energy for write commands per rank (pJ)
system.mem_ctrls0_0.refreshEnergy        2428510865040.000488                       # Energy for refresh commands per rank (pJ)
system.mem_ctrls0_0.actBackEnergy        1021508585820                       # Energy for active background per rank (pJ)
system.mem_ctrls0_0.preBackEnergy         54917249280                       # Energy for precharge background per rank (pJ)
system.mem_ctrls0_0.actPowerDownEnergy   11829236740980                       # Energy for active power-down per rank (pJ)
system.mem_ctrls0_0.prePowerDownEnergy   936286973760                       # Energy for precharge power-down per rank (pJ)
system.mem_ctrls0_0.selfRefreshEnergy       309287100                       # Energy for self refresh per rank (pJ)
system.mem_ctrls0_0.totalEnergy          16811836623840                       # Total energy per rank (pJ)
system.mem_ctrls0_0.averagePower           546.486586                       # Core power per rank (mW)
system.mem_ctrls0_0.totalIdleTime        28380431163880                       # Total Idle time Per DRAM Rank
system.mem_ctrls0_0.memoryStateTime::IDLE  23512964461                       # Time in different power states
system.mem_ctrls0_0.memoryStateTime::REF 1027290318000                       # Time in different power states
system.mem_ctrls0_0.memoryStateTime::SREF    771751455                       # Time in different power states
system.mem_ctrls0_0.memoryStateTime::PRE_PDN 2438214916848                       # Time in different power states
system.mem_ctrls0_0.memoryStateTime::ACT 1332258802864                       # Time in different power states
system.mem_ctrls0_0.memoryStateTime::ACT_PDN 25941444919654                       # Time in different power states
system.mem_ctrls0_1.actEnergy            213473647800                       # Energy for activate commands per rank (pJ)
system.mem_ctrls0_1.preEnergy            113463934650                       # Energy for precharge commands per rank (pJ)
system.mem_ctrls0_1.readEnergy           213650348520                       # Energy for read commands per rank (pJ)
system.mem_ctrls0_1.writeEnergy             292826340                       # Energy for write commands per rank (pJ)
system.mem_ctrls0_1.refreshEnergy        2428510250400.000488                       # Energy for refresh commands per rank (pJ)
system.mem_ctrls0_1.actBackEnergy        1021636966920                       # Energy for active background per rank (pJ)
system.mem_ctrls0_1.preBackEnergy         54696660480                       # Energy for precharge background per rank (pJ)
system.mem_ctrls0_1.actPowerDownEnergy   11873350565160                       # Energy for active power-down per rank (pJ)
system.mem_ctrls0_1.prePowerDownEnergy   899364151200                       # Energy for precharge power-down per rank (pJ)
system.mem_ctrls0_1.selfRefreshEnergy       215631360                       # Energy for self refresh per rank (pJ)
system.mem_ctrls0_1.totalEnergy          16818656516880                       # Total energy per rank (pJ)
system.mem_ctrls0_1.averagePower           546.708270                       # Core power per rank (mW)
system.mem_ctrls0_1.totalIdleTime        28380785330582                       # Total Idle time Per DRAM Rank
system.mem_ctrls0_1.memoryStateTime::IDLE  23496339489                       # Time in different power states
system.mem_ctrls0_1.memoryStateTime::REF 1027289616314                       # Time in different power states
system.mem_ctrls0_1.memoryStateTime::SREF    475646968                       # Time in different power states
system.mem_ctrls0_1.memoryStateTime::PRE_PDN 2342619063876                       # Time in different power states
system.mem_ctrls0_1.memoryStateTime::ACT 1331922386897                       # Time in different power states
system.mem_ctrls0_1.memoryStateTime::ACT_PDN 26037690619738                       # Time in different power states
system.mem_ctrls1.pwrStateResidencyTicks::UNDEFINED 192845676835782                       # Cumulative time (in ticks) in various power states
system.mem_ctrls1.bytes_read::cpu.inst            128                       # Number of bytes read from this memory
system.mem_ctrls1.bytes_read::cpu.data             64                       # Number of bytes read from this memory
system.mem_ctrls1.bytes_read::switch_cpus.inst         1088                       # Number of bytes read from this memory
system.mem_ctrls1.bytes_read::switch_cpus.data   1932678272                       # Number of bytes read from this memory
system.mem_ctrls1.bytes_read::switch_cpus_1.inst          704                       # Number of bytes read from this memory
system.mem_ctrls1.bytes_read::switch_cpus_1.data   1901958784                       # Number of bytes read from this memory
system.mem_ctrls1.bytes_read::total        3834639040                       # Number of bytes read from this memory
system.mem_ctrls1.bytes_inst_read::cpu.inst          128                       # Number of instructions bytes read from this memory
system.mem_ctrls1.bytes_inst_read::switch_cpus.inst         1088                       # Number of instructions bytes read from this memory
system.mem_ctrls1.bytes_inst_read::switch_cpus_1.inst          704                       # Number of instructions bytes read from this memory
system.mem_ctrls1.bytes_inst_read::total         1920                       # Number of instructions bytes read from this memory
system.mem_ctrls1.bytes_written::writebacks      7348288                       # Number of bytes written to this memory
system.mem_ctrls1.bytes_written::total        7348288                       # Number of bytes written to this memory
system.mem_ctrls1.num_reads::cpu.inst               2                       # Number of read requests responded to by this memory
system.mem_ctrls1.num_reads::cpu.data               1                       # Number of read requests responded to by this memory
system.mem_ctrls1.num_reads::switch_cpus.inst           17                       # Number of read requests responded to by this memory
system.mem_ctrls1.num_reads::switch_cpus.data     30198098                       # Number of read requests responded to by this memory
system.mem_ctrls1.num_reads::switch_cpus_1.inst           11                       # Number of read requests responded to by this memory
system.mem_ctrls1.num_reads::switch_cpus_1.data     29718106                       # Number of read requests responded to by this memory
system.mem_ctrls1.num_reads::total           59916235                       # Number of read requests responded to by this memory
system.mem_ctrls1.num_writes::writebacks       114817                       # Number of write requests responded to by this memory
system.mem_ctrls1.num_writes::total            114817                       # Number of write requests responded to by this memory
system.mem_ctrls1.bw_read::cpu.inst                 4                       # Total read bandwidth from this memory (bytes/s)
system.mem_ctrls1.bw_read::cpu.data                 2                       # Total read bandwidth from this memory (bytes/s)
system.mem_ctrls1.bw_read::switch_cpus.inst           35                       # Total read bandwidth from this memory (bytes/s)
system.mem_ctrls1.bw_read::switch_cpus.data     62823758                       # Total read bandwidth from this memory (bytes/s)
system.mem_ctrls1.bw_read::switch_cpus_1.inst           23                       # Total read bandwidth from this memory (bytes/s)
system.mem_ctrls1.bw_read::switch_cpus_1.data     61825188                       # Total read bandwidth from this memory (bytes/s)
system.mem_ctrls1.bw_read::total            124649010                       # Total read bandwidth from this memory (bytes/s)
system.mem_ctrls1.bw_inst_read::cpu.inst            4                       # Instruction read bandwidth from this memory (bytes/s)
system.mem_ctrls1.bw_inst_read::switch_cpus.inst           35                       # Instruction read bandwidth from this memory (bytes/s)
system.mem_ctrls1.bw_inst_read::switch_cpus_1.inst           23                       # Instruction read bandwidth from this memory (bytes/s)
system.mem_ctrls1.bw_inst_read::total              62                       # Instruction read bandwidth from this memory (bytes/s)
system.mem_ctrls1.bw_write::writebacks         238864                       # Write bandwidth from this memory (bytes/s)
system.mem_ctrls1.bw_write::total              238864                       # Write bandwidth from this memory (bytes/s)
system.mem_ctrls1.bw_total::writebacks         238864                       # Total bandwidth to/from this memory (bytes/s)
system.mem_ctrls1.bw_total::cpu.inst                4                       # Total bandwidth to/from this memory (bytes/s)
system.mem_ctrls1.bw_total::cpu.data                2                       # Total bandwidth to/from this memory (bytes/s)
system.mem_ctrls1.bw_total::switch_cpus.inst           35                       # Total bandwidth to/from this memory (bytes/s)
system.mem_ctrls1.bw_total::switch_cpus.data     62823758                       # Total bandwidth to/from this memory (bytes/s)
system.mem_ctrls1.bw_total::switch_cpus_1.inst           23                       # Total bandwidth to/from this memory (bytes/s)
system.mem_ctrls1.bw_total::switch_cpus_1.data     61825188                       # Total bandwidth to/from this memory (bytes/s)
system.mem_ctrls1.bw_total::total           124887874                       # Total bandwidth to/from this memory (bytes/s)
system.mem_ctrls1.readReqs                   59916235                       # Number of read requests accepted
system.mem_ctrls1.writeReqs                    114817                       # Number of write requests accepted
system.mem_ctrls1.readBursts                 59916235                       # Number of DRAM read bursts, including those serviced by the write queue
system.mem_ctrls1.writeBursts                  114817                       # Number of DRAM write bursts, including those merged in the write queue
system.mem_ctrls1.bytesReadDRAM            3833885568                       # Total number of bytes read from DRAM
system.mem_ctrls1.bytesReadWrQ                 753472                       # Total number of bytes read from write queue
system.mem_ctrls1.bytesWritten                7278208                       # Total number of bytes written to DRAM
system.mem_ctrls1.bytesReadSys             3834639040                       # Total read bytes from the system interface side
system.mem_ctrls1.bytesWrittenSys             7348288                       # Total written bytes from the system interface side
system.mem_ctrls1.servicedByWrQ                 11773                       # Number of DRAM read bursts serviced by the write queue
system.mem_ctrls1.mergedWrBursts                 1073                       # Number of DRAM write bursts merged with an existing one
system.mem_ctrls1.neitherReadNorWriteReqs            0                       # Number of requests that are neither read nor write
system.mem_ctrls1.perBankRdBursts::0          3720378                       # Per bank write bursts
system.mem_ctrls1.perBankRdBursts::1          3757385                       # Per bank write bursts
system.mem_ctrls1.perBankRdBursts::2          3742627                       # Per bank write bursts
system.mem_ctrls1.perBankRdBursts::3          3760148                       # Per bank write bursts
system.mem_ctrls1.perBankRdBursts::4          3745101                       # Per bank write bursts
system.mem_ctrls1.perBankRdBursts::5          3747515                       # Per bank write bursts
system.mem_ctrls1.perBankRdBursts::6          3743150                       # Per bank write bursts
system.mem_ctrls1.perBankRdBursts::7          3722739                       # Per bank write bursts
system.mem_ctrls1.perBankRdBursts::8          3762385                       # Per bank write bursts
system.mem_ctrls1.perBankRdBursts::9          3758643                       # Per bank write bursts
system.mem_ctrls1.perBankRdBursts::10         3794680                       # Per bank write bursts
system.mem_ctrls1.perBankRdBursts::11         3759804                       # Per bank write bursts
system.mem_ctrls1.perBankRdBursts::12         3728818                       # Per bank write bursts
system.mem_ctrls1.perBankRdBursts::13         3753894                       # Per bank write bursts
system.mem_ctrls1.perBankRdBursts::14         3737670                       # Per bank write bursts
system.mem_ctrls1.perBankRdBursts::15         3669525                       # Per bank write bursts
system.mem_ctrls1.perBankWrBursts::0             7052                       # Per bank write bursts
system.mem_ctrls1.perBankWrBursts::1             6912                       # Per bank write bursts
system.mem_ctrls1.perBankWrBursts::2             6996                       # Per bank write bursts
system.mem_ctrls1.perBankWrBursts::3             7572                       # Per bank write bursts
system.mem_ctrls1.perBankWrBursts::4             7196                       # Per bank write bursts
system.mem_ctrls1.perBankWrBursts::5             7075                       # Per bank write bursts
system.mem_ctrls1.perBankWrBursts::6             7042                       # Per bank write bursts
system.mem_ctrls1.perBankWrBursts::7             7125                       # Per bank write bursts
system.mem_ctrls1.perBankWrBursts::8             7315                       # Per bank write bursts
system.mem_ctrls1.perBankWrBursts::9             6984                       # Per bank write bursts
system.mem_ctrls1.perBankWrBursts::10            7230                       # Per bank write bursts
system.mem_ctrls1.perBankWrBursts::11            7217                       # Per bank write bursts
system.mem_ctrls1.perBankWrBursts::12            7041                       # Per bank write bursts
system.mem_ctrls1.perBankWrBursts::13            7108                       # Per bank write bursts
system.mem_ctrls1.perBankWrBursts::14            7066                       # Per bank write bursts
system.mem_ctrls1.perBankWrBursts::15            6791                       # Per bank write bursts
system.mem_ctrls1.numRdRetry                        0                       # Number of times read queue was full causing retry
system.mem_ctrls1.numWrRetry                        0                       # Number of times write queue was full causing retry
system.mem_ctrls1.totGap                 30763493220159                       # Total gap between requests
system.mem_ctrls1.readPktSize::0                    0                       # Read request sizes (log2)
system.mem_ctrls1.readPktSize::1                    0                       # Read request sizes (log2)
system.mem_ctrls1.readPktSize::2                    0                       # Read request sizes (log2)
system.mem_ctrls1.readPktSize::3                    0                       # Read request sizes (log2)
system.mem_ctrls1.readPktSize::4                    0                       # Read request sizes (log2)
system.mem_ctrls1.readPktSize::5                    0                       # Read request sizes (log2)
system.mem_ctrls1.readPktSize::6             59916235                       # Read request sizes (log2)
system.mem_ctrls1.writePktSize::0                   0                       # Write request sizes (log2)
system.mem_ctrls1.writePktSize::1                   0                       # Write request sizes (log2)
system.mem_ctrls1.writePktSize::2                   0                       # Write request sizes (log2)
system.mem_ctrls1.writePktSize::3                   0                       # Write request sizes (log2)
system.mem_ctrls1.writePktSize::4                   0                       # Write request sizes (log2)
system.mem_ctrls1.writePktSize::5                   0                       # Write request sizes (log2)
system.mem_ctrls1.writePktSize::6              114817                       # Write request sizes (log2)
system.mem_ctrls1.rdQLenPdf::0               59869953                       # What read queue length does an incoming req see
system.mem_ctrls1.rdQLenPdf::1                  31285                       # What read queue length does an incoming req see
system.mem_ctrls1.rdQLenPdf::2                   3075                       # What read queue length does an incoming req see
system.mem_ctrls1.rdQLenPdf::3                    149                       # What read queue length does an incoming req see
system.mem_ctrls1.rdQLenPdf::4                      0                       # What read queue length does an incoming req see
system.mem_ctrls1.rdQLenPdf::5                      0                       # What read queue length does an incoming req see
system.mem_ctrls1.rdQLenPdf::6                      0                       # What read queue length does an incoming req see
system.mem_ctrls1.rdQLenPdf::7                      0                       # What read queue length does an incoming req see
system.mem_ctrls1.rdQLenPdf::8                      0                       # What read queue length does an incoming req see
system.mem_ctrls1.rdQLenPdf::9                      0                       # What read queue length does an incoming req see
system.mem_ctrls1.rdQLenPdf::10                     0                       # What read queue length does an incoming req see
system.mem_ctrls1.rdQLenPdf::11                     0                       # What read queue length does an incoming req see
system.mem_ctrls1.rdQLenPdf::12                     0                       # What read queue length does an incoming req see
system.mem_ctrls1.rdQLenPdf::13                     0                       # What read queue length does an incoming req see
system.mem_ctrls1.rdQLenPdf::14                     0                       # What read queue length does an incoming req see
system.mem_ctrls1.rdQLenPdf::15                     0                       # What read queue length does an incoming req see
system.mem_ctrls1.rdQLenPdf::16                     0                       # What read queue length does an incoming req see
system.mem_ctrls1.rdQLenPdf::17                     0                       # What read queue length does an incoming req see
system.mem_ctrls1.rdQLenPdf::18                     0                       # What read queue length does an incoming req see
system.mem_ctrls1.rdQLenPdf::19                     0                       # What read queue length does an incoming req see
system.mem_ctrls1.rdQLenPdf::20                     0                       # What read queue length does an incoming req see
system.mem_ctrls1.rdQLenPdf::21                     0                       # What read queue length does an incoming req see
system.mem_ctrls1.rdQLenPdf::22                     0                       # What read queue length does an incoming req see
system.mem_ctrls1.rdQLenPdf::23                     0                       # What read queue length does an incoming req see
system.mem_ctrls1.rdQLenPdf::24                     0                       # What read queue length does an incoming req see
system.mem_ctrls1.rdQLenPdf::25                     0                       # What read queue length does an incoming req see
system.mem_ctrls1.rdQLenPdf::26                     0                       # What read queue length does an incoming req see
system.mem_ctrls1.rdQLenPdf::27                     0                       # What read queue length does an incoming req see
system.mem_ctrls1.rdQLenPdf::28                     0                       # What read queue length does an incoming req see
system.mem_ctrls1.rdQLenPdf::29                     0                       # What read queue length does an incoming req see
system.mem_ctrls1.rdQLenPdf::30                     0                       # What read queue length does an incoming req see
system.mem_ctrls1.rdQLenPdf::31                     0                       # What read queue length does an incoming req see
system.mem_ctrls1.wrQLenPdf::0                      2                       # What write queue length does an incoming req see
system.mem_ctrls1.wrQLenPdf::1                      2                       # What write queue length does an incoming req see
system.mem_ctrls1.wrQLenPdf::2                      2                       # What write queue length does an incoming req see
system.mem_ctrls1.wrQLenPdf::3                      2                       # What write queue length does an incoming req see
system.mem_ctrls1.wrQLenPdf::4                      2                       # What write queue length does an incoming req see
system.mem_ctrls1.wrQLenPdf::5                      2                       # What write queue length does an incoming req see
system.mem_ctrls1.wrQLenPdf::6                      2                       # What write queue length does an incoming req see
system.mem_ctrls1.wrQLenPdf::7                      2                       # What write queue length does an incoming req see
system.mem_ctrls1.wrQLenPdf::8                      2                       # What write queue length does an incoming req see
system.mem_ctrls1.wrQLenPdf::9                      2                       # What write queue length does an incoming req see
system.mem_ctrls1.wrQLenPdf::10                     2                       # What write queue length does an incoming req see
system.mem_ctrls1.wrQLenPdf::11                     2                       # What write queue length does an incoming req see
system.mem_ctrls1.wrQLenPdf::12                     2                       # What write queue length does an incoming req see
system.mem_ctrls1.wrQLenPdf::13                     2                       # What write queue length does an incoming req see
system.mem_ctrls1.wrQLenPdf::14                     2                       # What write queue length does an incoming req see
system.mem_ctrls1.wrQLenPdf::15                  5903                       # What write queue length does an incoming req see
system.mem_ctrls1.wrQLenPdf::16                  5961                       # What write queue length does an incoming req see
system.mem_ctrls1.wrQLenPdf::17                  6345                       # What write queue length does an incoming req see
system.mem_ctrls1.wrQLenPdf::18                  6364                       # What write queue length does an incoming req see
system.mem_ctrls1.wrQLenPdf::19                  6367                       # What write queue length does an incoming req see
system.mem_ctrls1.wrQLenPdf::20                  6365                       # What write queue length does an incoming req see
system.mem_ctrls1.wrQLenPdf::21                  6369                       # What write queue length does an incoming req see
system.mem_ctrls1.wrQLenPdf::22                  6371                       # What write queue length does an incoming req see
system.mem_ctrls1.wrQLenPdf::23                  6366                       # What write queue length does an incoming req see
system.mem_ctrls1.wrQLenPdf::24                  6364                       # What write queue length does an incoming req see
system.mem_ctrls1.wrQLenPdf::25                  6362                       # What write queue length does an incoming req see
system.mem_ctrls1.wrQLenPdf::26                  6363                       # What write queue length does an incoming req see
system.mem_ctrls1.wrQLenPdf::27                  6360                       # What write queue length does an incoming req see
system.mem_ctrls1.wrQLenPdf::28                  6364                       # What write queue length does an incoming req see
system.mem_ctrls1.wrQLenPdf::29                  6362                       # What write queue length does an incoming req see
system.mem_ctrls1.wrQLenPdf::30                  6406                       # What write queue length does an incoming req see
system.mem_ctrls1.wrQLenPdf::31                  6362                       # What write queue length does an incoming req see
system.mem_ctrls1.wrQLenPdf::32                  6359                       # What write queue length does an incoming req see
system.mem_ctrls1.wrQLenPdf::33                     1                       # What write queue length does an incoming req see
system.mem_ctrls1.wrQLenPdf::34                     0                       # What write queue length does an incoming req see
system.mem_ctrls1.wrQLenPdf::35                     0                       # What write queue length does an incoming req see
system.mem_ctrls1.wrQLenPdf::36                     0                       # What write queue length does an incoming req see
system.mem_ctrls1.wrQLenPdf::37                     0                       # What write queue length does an incoming req see
system.mem_ctrls1.wrQLenPdf::38                     0                       # What write queue length does an incoming req see
system.mem_ctrls1.wrQLenPdf::39                     0                       # What write queue length does an incoming req see
system.mem_ctrls1.wrQLenPdf::40                     0                       # What write queue length does an incoming req see
system.mem_ctrls1.wrQLenPdf::41                     0                       # What write queue length does an incoming req see
system.mem_ctrls1.wrQLenPdf::42                     0                       # What write queue length does an incoming req see
system.mem_ctrls1.wrQLenPdf::43                     0                       # What write queue length does an incoming req see
system.mem_ctrls1.wrQLenPdf::44                     0                       # What write queue length does an incoming req see
system.mem_ctrls1.wrQLenPdf::45                     0                       # What write queue length does an incoming req see
system.mem_ctrls1.wrQLenPdf::46                     0                       # What write queue length does an incoming req see
system.mem_ctrls1.wrQLenPdf::47                     0                       # What write queue length does an incoming req see
system.mem_ctrls1.wrQLenPdf::48                     0                       # What write queue length does an incoming req see
system.mem_ctrls1.wrQLenPdf::49                     0                       # What write queue length does an incoming req see
system.mem_ctrls1.wrQLenPdf::50                     0                       # What write queue length does an incoming req see
system.mem_ctrls1.wrQLenPdf::51                     0                       # What write queue length does an incoming req see
system.mem_ctrls1.wrQLenPdf::52                     0                       # What write queue length does an incoming req see
system.mem_ctrls1.wrQLenPdf::53                     0                       # What write queue length does an incoming req see
system.mem_ctrls1.wrQLenPdf::54                     0                       # What write queue length does an incoming req see
system.mem_ctrls1.wrQLenPdf::55                     0                       # What write queue length does an incoming req see
system.mem_ctrls1.wrQLenPdf::56                     0                       # What write queue length does an incoming req see
system.mem_ctrls1.wrQLenPdf::57                     0                       # What write queue length does an incoming req see
system.mem_ctrls1.wrQLenPdf::58                     0                       # What write queue length does an incoming req see
system.mem_ctrls1.wrQLenPdf::59                     0                       # What write queue length does an incoming req see
system.mem_ctrls1.wrQLenPdf::60                     0                       # What write queue length does an incoming req see
system.mem_ctrls1.wrQLenPdf::61                     0                       # What write queue length does an incoming req see
system.mem_ctrls1.wrQLenPdf::62                     0                       # What write queue length does an incoming req see
system.mem_ctrls1.wrQLenPdf::63                     0                       # What write queue length does an incoming req see
system.mem_ctrls1.bytesPerActivate::samples     59856825                       # Bytes accessed per row activation
system.mem_ctrls1.bytesPerActivate::mean    64.172520                       # Bytes accessed per row activation
system.mem_ctrls1.bytesPerActivate::gmean    64.098592                       # Bytes accessed per row activation
system.mem_ctrls1.bytesPerActivate::stdev     5.100566                       # Bytes accessed per row activation
system.mem_ctrls1.bytesPerActivate::0-127     59748741     99.82%     99.82% # Bytes accessed per row activation
system.mem_ctrls1.bytesPerActivate::128-255        95951      0.16%     99.98% # Bytes accessed per row activation
system.mem_ctrls1.bytesPerActivate::256-383         8969      0.01%     99.99% # Bytes accessed per row activation
system.mem_ctrls1.bytesPerActivate::384-511         2188      0.00%    100.00% # Bytes accessed per row activation
system.mem_ctrls1.bytesPerActivate::512-639          617      0.00%    100.00% # Bytes accessed per row activation
system.mem_ctrls1.bytesPerActivate::640-767          228      0.00%    100.00% # Bytes accessed per row activation
system.mem_ctrls1.bytesPerActivate::768-895           85      0.00%    100.00% # Bytes accessed per row activation
system.mem_ctrls1.bytesPerActivate::896-1023           29      0.00%    100.00% # Bytes accessed per row activation
system.mem_ctrls1.bytesPerActivate::1024-1151           17      0.00%    100.00% # Bytes accessed per row activation
system.mem_ctrls1.bytesPerActivate::total     59856825                       # Bytes accessed per row activation
system.mem_ctrls1.rdPerTurnAround::samples         6360                       # Reads before turning the bus around for writes
system.mem_ctrls1.rdPerTurnAround::mean   9402.745597                       # Reads before turning the bus around for writes
system.mem_ctrls1.rdPerTurnAround::gmean   225.995678                       # Reads before turning the bus around for writes
system.mem_ctrls1.rdPerTurnAround::stdev 103196.184037                       # Reads before turning the bus around for writes
system.mem_ctrls1.rdPerTurnAround::0-262143         6322     99.40%     99.40% # Reads before turning the bus around for writes
system.mem_ctrls1.rdPerTurnAround::262144-524287           27      0.42%     99.83% # Reads before turning the bus around for writes
system.mem_ctrls1.rdPerTurnAround::524288-786431            5      0.08%     99.91% # Reads before turning the bus around for writes
system.mem_ctrls1.rdPerTurnAround::786432-1.04858e+06            1      0.02%     99.92% # Reads before turning the bus around for writes
system.mem_ctrls1.rdPerTurnAround::1.04858e+06-1.31072e+06            1      0.02%     99.94% # Reads before turning the bus around for writes
system.mem_ctrls1.rdPerTurnAround::1.31072e+06-1.57286e+06            1      0.02%     99.95% # Reads before turning the bus around for writes
system.mem_ctrls1.rdPerTurnAround::2.3593e+06-2.62144e+06            1      0.02%     99.97% # Reads before turning the bus around for writes
system.mem_ctrls1.rdPerTurnAround::3.67002e+06-3.93216e+06            1      0.02%     99.98% # Reads before turning the bus around for writes
system.mem_ctrls1.rdPerTurnAround::5.76717e+06-6.02931e+06            1      0.02%    100.00% # Reads before turning the bus around for writes
system.mem_ctrls1.rdPerTurnAround::total         6360                       # Reads before turning the bus around for writes
system.mem_ctrls1.wrPerTurnAround::samples         6360                       # Writes before turning the bus around for reads
system.mem_ctrls1.wrPerTurnAround::mean     17.880818                       # Writes before turning the bus around for reads
system.mem_ctrls1.wrPerTurnAround::gmean    17.872991                       # Writes before turning the bus around for reads
system.mem_ctrls1.wrPerTurnAround::stdev     0.513332                       # Writes before turning the bus around for reads
system.mem_ctrls1.wrPerTurnAround::15               1      0.02%      0.02% # Writes before turning the bus around for reads
system.mem_ctrls1.wrPerTurnAround::16             402      6.32%      6.34% # Writes before turning the bus around for reads
system.mem_ctrls1.wrPerTurnAround::17              48      0.75%      7.09% # Writes before turning the bus around for reads
system.mem_ctrls1.wrPerTurnAround::18            5814     91.42%     98.51% # Writes before turning the bus around for reads
system.mem_ctrls1.wrPerTurnAround::19              93      1.46%     99.97% # Writes before turning the bus around for reads
system.mem_ctrls1.wrPerTurnAround::20               2      0.03%    100.00% # Writes before turning the bus around for reads
system.mem_ctrls1.wrPerTurnAround::total         6360                       # Writes before turning the bus around for reads
system.mem_ctrls1.totQLat                1726795025241                       # Total ticks spent queuing
system.mem_ctrls1.totMemAccLat           2850003687741                       # Total ticks spent from burst creation until serviced by the DRAM
system.mem_ctrls1.totBusLat              299522310000                       # Total ticks spent in databus transfers
system.mem_ctrls1.avgQLat                    28825.82                       # Average queueing delay per DRAM burst
system.mem_ctrls1.avgBusLat                   5000.00                       # Average bus latency per DRAM burst
system.mem_ctrls1.avgMemAccLat               47575.82                       # Average memory access latency per DRAM burst
system.mem_ctrls1.avgRdBW                      124.62                       # Average DRAM read bandwidth in MiByte/s
system.mem_ctrls1.avgWrBW                        0.24                       # Average achieved write bandwidth in MiByte/s
system.mem_ctrls1.avgRdBWSys                   124.65                       # Average system read bandwidth in MiByte/s
system.mem_ctrls1.avgWrBWSys                     0.24                       # Average system write bandwidth in MiByte/s
system.mem_ctrls1.peakBW                     12800.00                       # Theoretical peak bandwidth in MiByte/s
system.mem_ctrls1.busUtil                        0.98                       # Data bus utilization in percentage
system.mem_ctrls1.busUtilRead                    0.97                       # Data bus utilization in percentage for reads
system.mem_ctrls1.busUtilWrite                   0.00                       # Data bus utilization in percentage for writes
system.mem_ctrls1.avgRdQLen                      1.00                       # Average read queue length when enqueuing
system.mem_ctrls1.avgWrQLen                     23.83                       # Average write queue length when enqueuing
system.mem_ctrls1.readRowHits                  123174                       # Number of row buffer hits during reads
system.mem_ctrls1.writeRowHits                  38178                       # Number of row buffer hits during writes
system.mem_ctrls1.readRowHitRate                 0.21                       # Row buffer hit rate for reads
system.mem_ctrls1.writeRowHitRate               33.56                       # Row buffer hit rate for writes
system.mem_ctrls1.avgGap                    512459.67                       # Average gap between requests
system.mem_ctrls1.pageHitRate                    0.27                       # Row buffer hit rate, read and write combined
system.mem_ctrls1_0.actEnergy            213602667600                       # Energy for activate commands per rank (pJ)
system.mem_ctrls1_0.preEnergy            113532487530                       # Energy for precharge commands per rank (pJ)
system.mem_ctrls1_0.readEnergy           213764767020                       # Energy for read commands per rank (pJ)
system.mem_ctrls1_0.writeEnergy             297383400                       # Energy for write commands per rank (pJ)
system.mem_ctrls1_0.refreshEnergy        2428503489360.000488                       # Energy for refresh commands per rank (pJ)
system.mem_ctrls1_0.actBackEnergy        1021750522890                       # Energy for active background per rank (pJ)
system.mem_ctrls1_0.preBackEnergy         54527275200                       # Energy for precharge background per rank (pJ)
system.mem_ctrls1_0.actPowerDownEnergy   11853681660660                       # Energy for active power-down per rank (pJ)
system.mem_ctrls1_0.prePowerDownEnergy   915835041600                       # Energy for precharge power-down per rank (pJ)
system.mem_ctrls1_0.selfRefreshEnergy       346115655                       # Energy for self refresh per rank (pJ)
system.mem_ctrls1_0.totalEnergy          16815842048115                       # Total energy per rank (pJ)
system.mem_ctrls1_0.averagePower           546.616786                       # Core power per rank (mW)
system.mem_ctrls1_0.totalIdleTime        28380206500515                       # Total Idle time Per DRAM Rank
system.mem_ctrls1_0.memoryStateTime::IDLE  23440086638                       # Time in different power states
system.mem_ctrls1_0.memoryStateTime::REF 1027287192000                       # Time in different power states
system.mem_ctrls1_0.memoryStateTime::SREF    910173785                       # Time in different power states
system.mem_ctrls1_0.memoryStateTime::PRE_PDN 2385737290029                       # Time in different power states
system.mem_ctrls1_0.memoryStateTime::ACT 1332559494734                       # Time in different power states
system.mem_ctrls1_0.memoryStateTime::ACT_PDN 25993559436096                       # Time in different power states
system.mem_ctrls1_1.actEnergy            213775112880                       # Energy for activate commands per rank (pJ)
system.mem_ctrls1_1.preEnergy            113624163345                       # Energy for precharge commands per rank (pJ)
system.mem_ctrls1_1.readEnergy           213953091660                       # Energy for read commands per rank (pJ)
system.mem_ctrls1_1.writeEnergy             296245440                       # Energy for write commands per rank (pJ)
system.mem_ctrls1_1.refreshEnergy        2428501645440.000488                       # Energy for refresh commands per rank (pJ)
system.mem_ctrls1_1.actBackEnergy        1022702563110                       # Energy for active background per rank (pJ)
system.mem_ctrls1_1.preBackEnergy         54675082080                       # Energy for precharge background per rank (pJ)
system.mem_ctrls1_1.actPowerDownEnergy   11863519401240                       # Energy for active power-down per rank (pJ)
system.mem_ctrls1_1.prePowerDownEnergy   906754054560                       # Energy for precharge power-down per rank (pJ)
system.mem_ctrls1_1.selfRefreshEnergy       217997505                       # Energy for self refresh per rank (pJ)
system.mem_ctrls1_1.totalEnergy          16818020225070                       # Total energy per rank (pJ)
system.mem_ctrls1_1.averagePower           546.687590                       # Core power per rank (mW)
system.mem_ctrls1_1.totalIdleTime        28378692232906                       # Total Idle time Per DRAM Rank
system.mem_ctrls1_1.memoryStateTime::IDLE  23508191867                       # Time in different power states
system.mem_ctrls1_1.memoryStateTime::REF 1027286064000                       # Time in different power states
system.mem_ctrls1_1.memoryStateTime::SREF    511333001                       # Time in different power states
system.mem_ctrls1_1.memoryStateTime::PRE_PDN 2361972147200                       # Time in different power states
system.mem_ctrls1_1.memoryStateTime::ACT 1334006600978                       # Time in different power states
system.mem_ctrls1_1.memoryStateTime::ACT_PDN 26016209336236                       # Time in different power states
system.pwrStateResidencyTicks::UNDEFINED 192845676835782                       # Cumulative time (in ticks) in various power states
system.cpu.branchPred.lookups                      14                       # Number of BP lookups
system.cpu.branchPred.condPredicted                14                       # Number of conditional branches predicted
system.cpu.branchPred.condIncorrect                 4                       # Number of conditional branches incorrect
system.cpu.branchPred.BTBLookups                    0                       # Number of BTB lookups
system.cpu.branchPred.BTBHits                       0                       # Number of BTB hits
system.cpu.branchPred.BTBCorrect                    0                       # Number of correct BTB predictions (this stat may not work properly.
system.cpu.branchPred.BTBHitPct                   nan                       # BTB Hit Percentage
system.cpu.branchPred.usedRAS                       0                       # Number of times the RAS was used to get a target.
system.cpu.branchPred.RASInCorrect                  0                       # Number of incorrect RAS predictions.
system.cpu.branchPred.indirectLookups               0                       # Number of indirect predictor lookups.
system.cpu.branchPred.indirectHits                  0                       # Number of indirect target hits.
system.cpu.branchPred.indirectMisses                0                       # Number of indirect misses.
system.cpu.branchPredindirectMispredicted            0                       # Number of mispredicted indirect branches.
system.cpu_voltage_domain.voltage                   1                       # Voltage in Volts
system.cpu_clk_domain.clock                       333                       # Clock period in ticks
system.cpu.dtb.fetch_hits                           0                       # ITB hits
system.cpu.dtb.fetch_misses                         0                       # ITB misses
system.cpu.dtb.fetch_acv                            0                       # ITB acv
system.cpu.dtb.fetch_accesses                       0                       # ITB accesses
system.cpu.dtb.read_hits                            1                       # DTB read hits
system.cpu.dtb.read_misses                         11                       # DTB read misses
system.cpu.dtb.read_acv                             0                       # DTB read access violations
system.cpu.dtb.read_accesses                       12                       # DTB read accesses
system.cpu.dtb.write_hits                           0                       # DTB write hits
system.cpu.dtb.write_misses                         0                       # DTB write misses
system.cpu.dtb.write_acv                            0                       # DTB write access violations
system.cpu.dtb.write_accesses                       0                       # DTB write accesses
system.cpu.dtb.data_hits                            1                       # DTB hits
system.cpu.dtb.data_misses                         11                       # DTB misses
system.cpu.dtb.data_acv                             0                       # DTB access violations
system.cpu.dtb.data_accesses                       12                       # DTB accesses
system.cpu.itb.fetch_hits                          13                       # ITB hits
system.cpu.itb.fetch_misses                         0                       # ITB misses
system.cpu.itb.fetch_acv                            0                       # ITB acv
system.cpu.itb.fetch_accesses                      13                       # ITB accesses
system.cpu.itb.read_hits                            0                       # DTB read hits
system.cpu.itb.read_misses                          0                       # DTB read misses
system.cpu.itb.read_acv                             0                       # DTB read access violations
system.cpu.itb.read_accesses                        0                       # DTB read accesses
system.cpu.itb.write_hits                           0                       # DTB write hits
system.cpu.itb.write_misses                         0                       # DTB write misses
system.cpu.itb.write_acv                            0                       # DTB write access violations
system.cpu.itb.write_accesses                       0                       # DTB write accesses
system.cpu.itb.data_hits                            0                       # DTB hits
system.cpu.itb.data_misses                          0                       # DTB misses
system.cpu.itb.data_acv                             0                       # DTB access violations
system.cpu.itb.data_accesses                        0                       # DTB accesses
system.cpu.workload.num_syscalls                    0                       # Number of system calls
system.cpu.pwrStateResidencyTicks::ON    30763493673282                       # Cumulative time (in ticks) in various power states
system.cpu.numCycles                             1006                       # number of cpu cycles simulated
system.cpu.numWorkItemsStarted                      0                       # number of work items this cpu started
system.cpu.numWorkItemsCompleted                    0                       # number of work items this cpu completed
system.cpu.fetch.icacheStallCycles                 66                       # Number of cycles fetch is stalled on an Icache miss
system.cpu.fetch.Insts                            113                       # Number of instructions fetch has processed
system.cpu.fetch.Branches                          14                       # Number of branches that fetch encountered
system.cpu.fetch.Cycles                            15                       # Number of cycles fetch has run and was not squashing or blocked
system.cpu.fetch.SquashCycles                      11                       # Number of cycles fetch has spent squashing
system.cpu.fetch.PendingDrainCycles                15                       # Number of cycles fetch has spent waiting on pipes to drain
system.cpu.fetch.CacheLines                        13                       # Number of cache lines fetched
system.cpu.fetch.IcacheSquashes                     5                       # Number of outstanding Icache misses that were squashed
system.cpu.fetch.rateDist::samples                101                       # Number of instructions fetched each cycle (Total)
system.cpu.fetch.rateDist::mean              1.118812                       # Number of instructions fetched each cycle (Total)
system.cpu.fetch.rateDist::stdev             2.775922                       # Number of instructions fetched each cycle (Total)
system.cpu.fetch.rateDist::underflows               0      0.00%      0.00% # Number of instructions fetched each cycle (Total)
system.cpu.fetch.rateDist::0                       86     85.15%     85.15% # Number of instructions fetched each cycle (Total)
system.cpu.fetch.rateDist::1                        1      0.99%     86.14% # Number of instructions fetched each cycle (Total)
[...]
system.switch_cpus_1.iq.rate                 0.194929                       # Inst issue rate
system.switch_cpus_1.iq.fu_busy_cnt            206256                       # FU busy when requested
system.switch_cpus_1.iq.fu_busy_rate         0.000022                       # FU busy rate (busy events/executed inst)
system.switch_cpus_1.iq.int_inst_queue_reads  65639705215                       # Number of integer instruction queue reads
system.switch_cpus_1.iq.int_inst_queue_writes  31275572854                       # Number of integer instruction queue writes
system.switch_cpus_1.iq.int_inst_queue_wakeup_accesses   5790832615                       # Number of integer instruction queue wakeup accesses
system.switch_cpus_1.iq.fp_inst_queue_reads          119                       # Number of floating instruction queue reads
system.switch_cpus_1.iq.fp_inst_queue_writes          110                       # Number of floating instruction queue writes
system.switch_cpus_1.iq.fp_inst_queue_wakeup_accesses           55                       # Number of floating instruction queue wakeup accesses
system.switch_cpus_1.iq.int_alu_accesses   9206206206                       # Number of integer alu accesses
system.switch_cpus_1.iq.fp_alu_accesses            64                       # Number of floating point alu accesses
system.switch_cpus_1.iew.lsq.thread0.forwLoads        62456                       # Number of loads that had data forwarded from stores
system.switch_cpus_1.iew.lsq.thread0.invAddrLoads            0                       # Number of loads ignored due to an invalid address
system.switch_cpus_1.iew.lsq.thread0.squashedLoads   4987080838                       # Number of loads squashed
system.switch_cpus_1.iew.lsq.thread0.ignoredResponses          104                       # Number of memory responses ignored because the instruction is squashed
system.switch_cpus_1.iew.lsq.thread0.memOrderViolation         4829                       # Number of memory ordering violations
system.switch_cpus_1.iew.lsq.thread0.squashedStores      2293062                       # Number of stores squashed
system.switch_cpus_1.iew.lsq.thread0.invAddrSwpfs            0                       # Number of software prefetches ignored due to an invalid address
system.switch_cpus_1.iew.lsq.thread0.blockedLoads            0                       # Number of blocked loads due to partial load-store forwarding
system.switch_cpus_1.iew.lsq.thread0.rescheduledLoads            5                       # Number of loads that were rescheduled
system.switch_cpus_1.iew.lsq.thread0.cacheBlocked       242493                       # Number of times an access to memory failed due to the cache being blocked
system.switch_cpus_1.iew.iewIdleCycles              0                       # Number of cycles IEW is idle
system.switch_cpus_1.iew.iewSquashCycles    164941944                       # Number of cycles IEW is squashing
system.switch_cpus_1.iew.iewBlockCycles   41519871216                       # Number of cycles IEW is blocking
system.switch_cpus_1.iew.iewUnblockCycles    249192232                       # Number of cycles IEW is unblocking
system.switch_cpus_1.iew.iewDispatchedInsts  16138392603                       # Number of instructions dispatched to IQ
system.switch_cpus_1.iew.iewDispSquashedInsts        28099                       # Number of squashed instructions skipped by dispatch
system.switch_cpus_1.iew.iewDispLoadInsts   5308353740                       # Number of dispatched load instructions
system.switch_cpus_1.iew.iewDispStoreInsts      2837382                       # Number of dispatched store instructions
system.switch_cpus_1.iew.iewDispNonSpecInsts            0                       # Number of dispatched non-speculative instructions
system.switch_cpus_1.iew.iewIQFullEvents     95415293                       # Number of times the IQ has become full, causing a stall
system.switch_cpus_1.iew.iewLSQFullEvents     65288290                       # Number of times the LSQ has become full, causing a stall
system.switch_cpus_1.iew.memOrderViolationEvents         4829                       # Number of memory order violations
system.switch_cpus_1.iew.predictedTakenIncorrect      8443390                       # Number of branches that were predicted taken incorrectly
system.switch_cpus_1.iew.predictedNotTakenIncorrect     13960135                       # Number of branches that were predicted not taken incorrectly
system.switch_cpus_1.iew.branchMispredicts     22403525                       # Number of branch mispredicts detected at execute
system.switch_cpus_1.iew.iewExecutedInsts   9185223060                       # Number of executed instructions
system.switch_cpus_1.iew.iewExecLoadInsts   3717290105                       # Number of load instructions executed
system.switch_cpus_1.iew.iewExecSquashedInsts     20776954                       # Number of squashed instructions skipped in execute
system.switch_cpus_1.iew.exec_swp                   0                       # number of swp insts executed
system.switch_cpus_1.iew.exec_nop              608484                       # number of nop insts executed
system.switch_cpus_1.iew.exec_refs         3718061848                       # number of memory reference insts executed
system.switch_cpus_1.iew.exec_branches     1092665568                       # Number of branches executed
system.switch_cpus_1.iew.exec_stores           771743                       # Number of stores executed
system.switch_cpus_1.iew.exec_rate           0.194489                       # Inst execution rate
system.switch_cpus_1.iew.wb_sent           9180255288                       # cumulative count of insts sent to commit
system.switch_cpus_1.iew.wb_count          5790832670                       # cumulative count of insts written-back
system.switch_cpus_1.iew.wb_producers      3334298043                       # num instructions producing a value
system.switch_cpus_1.iew.wb_consumers      4591792271                       # num instructions consuming a value
system.switch_cpus_1.iew.wb_rate             0.122616                       # insts written-back per cycle
system.switch_cpus_1.iew.wb_fanout           0.726143                       # average fanout of values written-back
system.switch_cpus_1.commit.commitSquashedInsts  13988930846                       # The number of squashed insts skipped by commit
system.switch_cpus_1.commit.branchMispredicts     21440245                       # The number of times a branch was mispredicted
system.switch_cpus_1.commit.committed_per_cycle::samples  45416057253                       # Number of insts commited each cycle
system.switch_cpus_1.commit.committed_per_cycle::mean     0.022021                       # Number of insts commited each cycle
system.switch_cpus_1.commit.committed_per_cycle::stdev     0.279028                       # Number of insts commited each cycle
system.switch_cpus_1.commit.committed_per_cycle::underflows            0      0.00%      0.00% # Number of insts commited each cycle
system.switch_cpus_1.commit.committed_per_cycle::0  44906073206     98.88%     98.88% # Number of insts commited each cycle
system.switch_cpus_1.commit.committed_per_cycle::1    276731229      0.61%     99.49% # Number of insts commited each cycle
system.switch_cpus_1.commit.committed_per_cycle::2    159634543      0.35%     99.84% # Number of insts commited each cycle
system.switch_cpus_1.commit.committed_per_cycle::3     30125426      0.07%     99.90% # Number of insts commited each cycle
system.switch_cpus_1.commit.committed_per_cycle::4      8327605      0.02%     99.92% # Number of insts commited each cycle
system.switch_cpus_1.commit.committed_per_cycle::5       170254      0.00%     99.92% # Number of insts commited each cycle
system.switch_cpus_1.commit.committed_per_cycle::6        76751      0.00%     99.92% # Number of insts commited each cycle
system.switch_cpus_1.commit.committed_per_cycle::7       230742      0.00%     99.92% # Number of insts commited each cycle
system.switch_cpus_1.commit.committed_per_cycle::8     34687497      0.08%    100.00% # Number of insts commited each cycle
system.switch_cpus_1.commit.committed_per_cycle::overflows            0      0.00%    100.00% # Number of insts commited each cycle
system.switch_cpus_1.commit.committed_per_cycle::min_value            0                       # Number of insts commited each cycle
system.switch_cpus_1.commit.committed_per_cycle::max_value            8                       # Number of insts commited each cycle
system.switch_cpus_1.commit.committed_per_cycle::total  45416057253                       # Number of insts commited each cycle
system.switch_cpus_1.commit.committedInsts   1000113959                       # Number of instructions committed
system.switch_cpus_1.commit.committedOps   1000113959                       # Number of ops (including micro ops) committed
system.switch_cpus_1.commit.swp_count               0                       # Number of s/w prefetches committed
system.switch_cpus_1.commit.refs            321817194                       # Number of memory references committed
system.switch_cpus_1.commit.loads           321272874                       # Number of loads committed
system.switch_cpus_1.commit.membars                 0                       # Number of memory barriers committed
system.switch_cpus_1.commit.branches        247974098                       # Number of branches committed
system.switch_cpus_1.commit.fp_insts                0                       # Number of committed floating point instructions.
system.switch_cpus_1.commit.int_insts       999764230                       # Number of committed integer instructions.
system.switch_cpus_1.commit.function_calls        12638                       # Number of function calls committed.
system.switch_cpus_1.commit.op_class_0::No_OpClass       113959      0.01%      0.01% # Class of committed instruction
system.switch_cpus_1.commit.op_class_0::IntAlu    678182257     67.81%     67.82% # Class of committed instruction
system.switch_cpus_1.commit.op_class_0::IntMult          549      0.00%     67.82% # Class of committed instruction
system.switch_cpus_1.commit.op_class_0::IntDiv            0      0.00%     67.82% # Class of committed instruction
system.switch_cpus_1.commit.op_class_0::FloatAdd            0      0.00%     67.82% # Class of committed instruction
system.switch_cpus_1.commit.op_class_0::FloatCmp            0      0.00%     67.82% # Class of committed instruction
system.switch_cpus_1.commit.op_class_0::FloatCvt            0      0.00%     67.82% # Class of committed instruction
system.switch_cpus_1.commit.op_class_0::FloatMult            0      0.00%     67.82% # Class of committed instruction
system.switch_cpus_1.commit.op_class_0::FloatMultAcc            0      0.00%     67.82% # Class of committed instruction
system.switch_cpus_1.commit.op_class_0::FloatDiv            0      0.00%     67.82% # Class of committed instruction
system.switch_cpus_1.commit.op_class_0::FloatMisc            0      0.00%     67.82% # Class of committed instruction
system.switch_cpus_1.commit.op_class_0::FloatSqrt            0      0.00%     67.82% # Class of committed instruction
system.switch_cpus_1.commit.op_class_0::SimdAdd            0      0.00%     67.82% # Class of committed instruction
system.switch_cpus_1.commit.op_class_0::SimdAddAcc            0      0.00%     67.82% # Class of committed instruction
system.switch_cpus_1.commit.op_class_0::SimdAlu            0      0.00%     67.82% # Class of committed instruction
system.switch_cpus_1.commit.op_class_0::SimdCmp            0      0.00%     67.82% # Class of committed instruction
system.switch_cpus_1.commit.op_class_0::SimdCvt            0      0.00%     67.82% # Class of committed instruction
system.switch_cpus_1.commit.op_class_0::SimdMisc            0      0.00%     67.82% # Class of committed instruction
system.switch_cpus_1.commit.op_class_0::SimdMult            0      0.00%     67.82% # Class of committed instruction
system.switch_cpus_1.commit.op_class_0::SimdMultAcc            0      0.00%     67.82% # Class of committed instruction
system.switch_cpus_1.commit.op_class_0::SimdShift            0      0.00%     67.82% # Class of committed instruction
system.switch_cpus_1.commit.op_class_0::SimdShiftAcc            0      0.00%     67.82% # Class of committed instruction
system.switch_cpus_1.commit.op_class_0::SimdSqrt            0      0.00%     67.82% # Class of committed instruction
system.switch_cpus_1.commit.op_class_0::SimdFloatAdd            0      0.00%     67.82% # Class of committed instruction
system.switch_cpus_1.commit.op_class_0::SimdFloatAlu            0      0.00%     67.82% # Class of committed instruction
system.switch_cpus_1.commit.op_class_0::SimdFloatCmp            0      0.00%     67.82% # Class of committed instruction
system.switch_cpus_1.commit.op_class_0::SimdFloatCvt            0      0.00%     67.82% # Class of committed instruction
system.switch_cpus_1.commit.op_class_0::SimdFloatDiv            0      0.00%     67.82% # Class of committed instruction
system.switch_cpus_1.commit.op_class_0::SimdFloatMisc            0      0.00%     67.82% # Class of committed instruction
system.switch_cpus_1.commit.op_class_0::SimdFloatMult            0      0.00%     67.82% # Class of committed instruction
system.switch_cpus_1.commit.op_class_0::SimdFloatMultAcc            0      0.00%     67.82% # Class of committed instruction
system.switch_cpus_1.commit.op_class_0::SimdFloatSqrt            0      0.00%     67.82% # Class of committed instruction
system.switch_cpus_1.commit.op_class_0::MemRead    321272874     32.12%     99.95% # Class of committed instruction
system.switch_cpus_1.commit.op_class_0::MemWrite       544320      0.05%    100.00% # Class of committed instruction
system.switch_cpus_1.commit.op_class_0::FloatMemRead            0      0.00%    100.00% # Class of committed instruction
system.switch_cpus_1.commit.op_class_0::FloatMemWrite            0      0.00%    100.00% # Class of committed instruction
system.switch_cpus_1.commit.op_class_0::IprAccess            0      0.00%    100.00% # Class of committed instruction
system.switch_cpus_1.commit.op_class_0::InstPrefetch            0      0.00%    100.00% # Class of committed instruction
system.switch_cpus_1.commit.op_class_0::total   1000113959                       # Class of committed instruction
system.switch_cpus_1.commit.bw_lim_events     34687497                       # number cycles where commit BW limit reached
system.switch_cpus_1.rob.rob_reads        58504953951                       # The number of ROB reads
system.switch_cpus_1.rob.rob_writes       31789523700                       # The number of ROB writes
system.switch_cpus_1.timesIdled                    17                       # Number of times that the entire CPU went into an idle state and unscheduled itself
system.switch_cpus_1.idleCycles                  1895                       # Total number of cycles that the CPU has spent unscheduled due to idling
system.switch_cpus_1.committedInsts        1000000000                       # Number of Instructions Simulated
system.switch_cpus_1.committedOps          1000000000                       # Number of Ops (including micro ops) Simulated
system.switch_cpus_1.cpi                    47.227492                       # CPI: Cycles Per Instruction
system.switch_cpus_1.cpi_total              47.227492                       # CPI: Total CPI of All Threads
system.switch_cpus_1.ipc                     0.021174                       # IPC: Instructions Per Cycle
system.switch_cpus_1.ipc_total               0.021174                       # IPC: Total IPC of All Threads
system.switch_cpus_1.int_regfile_reads    13496272765                       # number of integer regfile reads
system.switch_cpus_1.int_regfile_writes    4697738821                       # number of integer regfile writes
system.switch_cpus_1.fp_regfile_reads              55                       # number of floating regfile reads
system.switch_cpus_1.fp_regfile_writes             32                       # number of floating regfile writes
system.tol3bus.snoop_filter.tot_requests    474428796                       # Total number of requests made to the snoop filter.
system.tol3bus.snoop_filter.hit_single_requests    237214390                       # Number of requests hitting in the snoop filter with a single holder of the requested data.
system.tol3bus.snoop_filter.hit_multi_requests            0                       # Number of requests hitting in the snoop filter with multiple (>1) holders of the requested data.
system.tol3bus.snoop_filter.tot_snoops       12895226                       # Total number of snoops made to the snoop filter.
system.tol3bus.snoop_filter.hit_single_snoops     12895226                       # Number of snoops hitting in the snoop filter with a single holder of the requested data.
system.tol3bus.snoop_filter.hit_multi_snoops            0                       # Number of snoops hitting in the snoop filter with multiple (>1) holders of the requested data.
system.tol3bus.pwrStateResidencyTicks::UNDEFINED 192845676835782                       # Cumulative time (in ticks) in various power states
system.tol3bus.trans_dist::ReadResp         237181698                       # Transaction distribution
system.tol3bus.trans_dist::WritebackDirty     48087551                       # Transaction distribution
system.tol3bus.trans_dist::CleanEvict       308854161                       # Transaction distribution
system.tol3bus.trans_dist::ReadExReq            32708                       # Transaction distribution
system.tol3bus.trans_dist::ReadExResp           32708                       # Transaction distribution
system.tol3bus.trans_dist::ReadSharedReq    237181698                       # Transaction distribution
system.tol3bus.pkt_count_system.cpu.l2.mem_side::system.l3.cpu_side    711643202                       # Packet count per connected master and slave (bytes)
system.tol3bus.pkt_size_system.cpu.l2.mem_side::system.l3.cpu_side  18244679040                       # Cumulative packet size per connected master and slave (bytes)
system.tol3bus.snoops                       119727322                       # Total snoops (count)
system.tol3bus.snoopTraffic                  14646208                       # Total snoop traffic (bytes)
system.tol3bus.snoop_fanout::samples        356941728                       # Request fanout histogram
system.tol3bus.snoop_fanout::mean            0.036127                       # Request fanout histogram
system.tol3bus.snoop_fanout::stdev           0.186606                       # Request fanout histogram
system.tol3bus.snoop_fanout::underflows             0      0.00%      0.00% # Request fanout histogram
system.tol3bus.snoop_fanout::0              344046502     96.39%     96.39% # Request fanout histogram
system.tol3bus.snoop_fanout::1               12895226      3.61%    100.00% # Request fanout histogram
system.tol3bus.snoop_fanout::overflows              0      0.00%    100.00% # Request fanout histogram
system.tol3bus.snoop_fanout::min_value              0                       # Request fanout histogram
system.tol3bus.snoop_fanout::max_value              1                       # Request fanout histogram
system.tol3bus.snoop_fanout::total          356941728                       # Request fanout histogram
system.tol3bus.reqLayer0.occupancy       173921737500                       # Layer occupancy (ticks)
system.tol3bus.reqLayer0.utilization              0.6                       # Layer utilization (%)
system.tol3bus.respLayer0.occupancy      157984794396                       # Layer occupancy (ticks)
system.tol3bus.respLayer0.utilization             0.5                       # Layer utilization (%)

---------- End Simulation Statistics   ----------
