
---------- Begin Simulation Statistics ----------
sim_seconds                                  1.944862                       # Number of seconds simulated
sim_ticks                                1944862384140                       # Number of ticks simulated
final_tick                               119179558816326                       # Number of ticks from beginning of simulation (restored from checkpoints and never reset)
sim_freq                                 1000000000000                       # Frequency of simulated ticks
host_inst_rate                                 210585                       # Simulator instruction rate (inst/s)
host_op_rate                                   210585                       # Simulator op (including micro ops) rate (op/s)
host_tick_rate                              204779383                       # Simulator tick rate (ticks/s)
host_mem_usage                                2589612                       # Number of bytes of host memory used
host_seconds                                  9497.35                       # Real time elapsed on the host
sim_insts                                  2000000003                       # Number of instructions simulated
sim_ops                                    2000000003                       # Number of ops (including micro ops) simulated
system.voltage_domain.voltage                       1                       # Voltage in Volts
system.clk_domain.clock                          1000                       # Clock period in ticks
system.mem_ctrls0.pwrStateResidencyTicks::UNDEFINED 119179558816326                       # Cumulative time (in ticks) in various power states
system.mem_ctrls0.bytes_read::cpu.inst             64                       # Number of bytes read from this memory
system.mem_ctrls0.bytes_read::switch_cpus.inst        21568                       # Number of bytes read from this memory
system.mem_ctrls0.bytes_read::switch_cpus.data    125449472                       # Number of bytes read from this memory
system.mem_ctrls0.bytes_read::switch_cpus_1.inst          384                       # Number of bytes read from this memory
system.mem_ctrls0.bytes_read::switch_cpus_1.data    109903232                       # Number of bytes read from this memory
system.mem_ctrls0.bytes_read::total         235374720                       # Number of bytes read from this memory
system.mem_ctrls0.bytes_inst_read::cpu.inst           64                       # Number of instructions bytes read from this memory
system.mem_ctrls0.bytes_inst_read::switch_cpus.inst        21568                       # Number of instructions bytes read from this memory
system.mem_ctrls0.bytes_inst_read::switch_cpus_1.inst          384                       # Number of instructions bytes read from this memory
system.mem_ctrls0.bytes_inst_read::total        22016                       # Number of instructions bytes read from this memory
system.mem_ctrls0.bytes_written::writebacks     88524800                       # Number of bytes written to this memory
system.mem_ctrls0.bytes_written::total       88524800                       # Number of bytes written to this memory
system.mem_ctrls0.num_reads::cpu.inst               1                       # Number of read requests responded to by this memory
system.mem_ctrls0.num_reads::switch_cpus.inst          337                       # Number of read requests responded to by this memory
system.mem_ctrls0.num_reads::switch_cpus.data      1960148                       # Number of read requests responded to by this memory
system.mem_ctrls0.num_reads::switch_cpus_1.inst            6                       # Number of read requests responded to by this memory
system.mem_ctrls0.num_reads::switch_cpus_1.data      1717238                       # Number of read requests responded to by this memory
system.mem_ctrls0.num_reads::total            3677730                       # Number of read requests responded to by this memory
system.mem_ctrls0.num_writes::writebacks      1383200                       # Number of write requests responded to by this memory
system.mem_ctrls0.num_writes::total           1383200                       # Number of write requests responded to by this memory
system.mem_ctrls0.bw_read::cpu.inst                33                       # Total read bandwidth from this memory (bytes/s)
system.mem_ctrls0.bw_read::switch_cpus.inst        11090                       # Total read bandwidth from this memory (bytes/s)
system.mem_ctrls0.bw_read::switch_cpus.data     64503007                       # Total read bandwidth from this memory (bytes/s)
system.mem_ctrls0.bw_read::switch_cpus_1.inst          197                       # Total read bandwidth from this memory (bytes/s)
system.mem_ctrls0.bw_read::switch_cpus_1.data     56509516                       # Total read bandwidth from this memory (bytes/s)
system.mem_ctrls0.bw_read::total            121023843                       # Total read bandwidth from this memory (bytes/s)
system.mem_ctrls0.bw_inst_read::cpu.inst           33                       # Instruction read bandwidth from this memory (bytes/s)
system.mem_ctrls0.bw_inst_read::switch_cpus.inst        11090                       # Instruction read bandwidth from this memory (bytes/s)
system.mem_ctrls0.bw_inst_read::switch_cpus_1.inst          197                       # Instruction read bandwidth from this memory (bytes/s)
system.mem_ctrls0.bw_inst_read::total           11320                       # Instruction read bandwidth from this memory (bytes/s)
system.mem_ctrls0.bw_write::writebacks       45517257                       # Write bandwidth from this memory (bytes/s)
system.mem_ctrls0.bw_write::total            45517257                       # Write bandwidth from this memory (bytes/s)
system.mem_ctrls0.bw_total::writebacks       45517257                       # Total bandwidth to/from this memory (bytes/s)
system.mem_ctrls0.bw_total::cpu.inst               33                       # Total bandwidth to/from this memory (bytes/s)
system.mem_ctrls0.bw_total::switch_cpus.inst        11090                       # Total bandwidth to/from this memory (bytes/s)
system.mem_ctrls0.bw_total::switch_cpus.data     64503007                       # Total bandwidth to/from this memory (bytes/s)
system.mem_ctrls0.bw_total::switch_cpus_1.inst          197                       # Total bandwidth to/from this memory (bytes/s)
system.mem_ctrls0.bw_total::switch_cpus_1.data     56509516                       # Total bandwidth to/from this memory (bytes/s)
system.mem_ctrls0.bw_total::total           166541100                       # Total bandwidth to/from this memory (bytes/s)
system.mem_ctrls0.readReqs                    3677730                       # Number of read requests accepted
system.mem_ctrls0.writeReqs                   1383200                       # Number of write requests accepted
system.mem_ctrls0.readBursts                  3677730                       # Number of DRAM read bursts, including those serviced by the write queue
system.mem_ctrls0.writeBursts                 1383200                       # Number of DRAM write bursts, including those merged in the write queue
system.mem_ctrls0.bytesReadDRAM             235372480                       # Total number of bytes read from DRAM
system.mem_ctrls0.bytesReadWrQ                   2240                       # Total number of bytes read from write queue
system.mem_ctrls0.bytesWritten               88523072                       # Total number of bytes written to DRAM
system.mem_ctrls0.bytesReadSys              235374720                       # Total read bytes from the system interface side
system.mem_ctrls0.bytesWrittenSys            88524800                       # Total written bytes from the system interface side
system.mem_ctrls0.servicedByWrQ                    35                       # Number of DRAM read bursts serviced by the write queue
system.mem_ctrls0.mergedWrBursts                    0                       # Number of DRAM write bursts merged with an existing one
system.mem_ctrls0.neitherReadNorWriteReqs            0                       # Number of requests that are neither read nor write
system.mem_ctrls0.perBankRdBursts::0           228828                       # Per bank write bursts
system.mem_ctrls0.perBankRdBursts::1           229987                       # Per bank write bursts
system.mem_ctrls0.perBankRdBursts::2           230528                       # Per bank write bursts
system.mem_ctrls0.perBankRdBursts::3           229774                       # Per bank write bursts
system.mem_ctrls0.perBankRdBursts::4           231589                       # Per bank write bursts
system.mem_ctrls0.perBankRdBursts::5           229699                       # Per bank write bursts
system.mem_ctrls0.perBankRdBursts::6           231044                       # Per bank write bursts
system.mem_ctrls0.perBankRdBursts::7           229082                       # Per bank write bursts
system.mem_ctrls0.perBankRdBursts::8           229998                       # Per bank write bursts
system.mem_ctrls0.perBankRdBursts::9           230227                       # Per bank write bursts
system.mem_ctrls0.perBankRdBursts::10          229576                       # Per bank write bursts
system.mem_ctrls0.perBankRdBursts::11          229510                       # Per bank write bursts
system.mem_ctrls0.perBankRdBursts::12          229510                       # Per bank write bursts
system.mem_ctrls0.perBankRdBursts::13          228878                       # Per bank write bursts
system.mem_ctrls0.perBankRdBursts::14          229913                       # Per bank write bursts
system.mem_ctrls0.perBankRdBursts::15          229552                       # Per bank write bursts
system.mem_ctrls0.perBankWrBursts::0            86442                       # Per bank write bursts
system.mem_ctrls0.perBankWrBursts::1            86022                       # Per bank write bursts
system.mem_ctrls0.perBankWrBursts::2            86242                       # Per bank write bursts
system.mem_ctrls0.perBankWrBursts::3            86316                       # Per bank write bursts
system.mem_ctrls0.perBankWrBursts::4            86199                       # Per bank write bursts
system.mem_ctrls0.perBankWrBursts::5            86379                       # Per bank write bursts
system.mem_ctrls0.perBankWrBursts::6            87687                       # Per bank write bursts
system.mem_ctrls0.perBankWrBursts::7            86332                       # Per bank write bursts
system.mem_ctrls0.perBankWrBursts::8            86667                       # Per bank write bursts
system.mem_ctrls0.perBankWrBursts::9            86487                       # Per bank write bursts
system.mem_ctrls0.perBankWrBursts::10           86455                       # Per bank write bursts
system.mem_ctrls0.perBankWrBursts::11           86281                       # Per bank write bursts
system.mem_ctrls0.perBankWrBursts::12           86451                       # Per bank write bursts
system.mem_ctrls0.perBankWrBursts::13           86350                       # Per bank write bursts
system.mem_ctrls0.perBankWrBursts::14           86488                       # Per bank write bursts
system.mem_ctrls0.perBankWrBursts::15           86375                       # Per bank write bursts
system.mem_ctrls0.numRdRetry                        0                       # Number of times read queue was full causing retry
system.mem_ctrls0.numWrRetry                        0                       # Number of times write queue was full causing retry
system.mem_ctrls0.totGap                 1944862173829                       # Total gap between requests
system.mem_ctrls0.readPktSize::0                    0                       # Read request sizes (log2)
system.mem_ctrls0.readPktSize::1                    0                       # Read request sizes (log2)
system.mem_ctrls0.readPktSize::2                    0                       # Read request sizes (log2)
system.mem_ctrls0.readPktSize::3                    0                       # Read request sizes (log2)
system.mem_ctrls0.readPktSize::4                    0                       # Read request sizes (log2)
system.mem_ctrls0.readPktSize::5                    0                       # Read request sizes (log2)
system.mem_ctrls0.readPktSize::6              3677730                       # Read request sizes (log2)
system.mem_ctrls0.writePktSize::0                   0                       # Write request sizes (log2)
system.mem_ctrls0.writePktSize::1                   0                       # Write request sizes (log2)
system.mem_ctrls0.writePktSize::2                   0                       # Write request sizes (log2)
system.mem_ctrls0.writePktSize::3                   0                       # Write request sizes (log2)
system.mem_ctrls0.writePktSize::4                   0                       # Write request sizes (log2)
system.mem_ctrls0.writePktSize::5                   0                       # Write request sizes (log2)
system.mem_ctrls0.writePktSize::6             1383200                       # Write request sizes (log2)
system.mem_ctrls0.rdQLenPdf::0                3220109                       # What read queue length does an incoming req see
system.mem_ctrls0.rdQLenPdf::1                 378952                       # What read queue length does an incoming req see
system.mem_ctrls0.rdQLenPdf::2                  71074                       # What read queue length does an incoming req see
system.mem_ctrls0.rdQLenPdf::3                   7560                       # What read queue length does an incoming req see
system.mem_ctrls0.rdQLenPdf::4                      0                       # What read queue length does an incoming req see
system.mem_ctrls0.rdQLenPdf::5                      0                       # What read queue length does an incoming req see
system.mem_ctrls0.rdQLenPdf::6                      0                       # What read queue length does an incoming req see
system.mem_ctrls0.rdQLenPdf::7                      0                       # What read queue length does an incoming req see
system.mem_ctrls0.rdQLenPdf::8                      0                       # What read queue length does an incoming req see
system.mem_ctrls0.rdQLenPdf::9                      0                       # What read queue length does an incoming req see
system.mem_ctrls0.rdQLenPdf::10                     0                       # What read queue length does an incoming req see
system.mem_ctrls0.rdQLenPdf::11                     0                       # What read queue length does an incoming req see
system.mem_ctrls0.rdQLenPdf::12                     0                       # What read queue length does an incoming req see
system.mem_ctrls0.rdQLenPdf::13                     0                       # What read queue length does an incoming req see
system.mem_ctrls0.rdQLenPdf::14                     0                       # What read queue length does an incoming req see
system.mem_ctrls0.rdQLenPdf::15                     0                       # What read queue length does an incoming req see
system.mem_ctrls0.rdQLenPdf::16                     0                       # What read queue length does an incoming req see
system.mem_ctrls0.rdQLenPdf::17                     0                       # What read queue length does an incoming req see
system.mem_ctrls0.rdQLenPdf::18                     0                       # What read queue length does an incoming req see
system.mem_ctrls0.rdQLenPdf::19                     0                       # What read queue length does an incoming req see
system.mem_ctrls0.rdQLenPdf::20                     0                       # What read queue length does an incoming req see
system.mem_ctrls0.rdQLenPdf::21                     0                       # What read queue length does an incoming req see
system.mem_ctrls0.rdQLenPdf::22                     0                       # What read queue length does an incoming req see
system.mem_ctrls0.rdQLenPdf::23                     0                       # What read queue length does an incoming req see
system.mem_ctrls0.rdQLenPdf::24                     0                       # What read queue length does an incoming req see
system.mem_ctrls0.rdQLenPdf::25                     0                       # What read queue length does an incoming req see
system.mem_ctrls0.rdQLenPdf::26                     0                       # What read queue length does an incoming req see
system.mem_ctrls0.rdQLenPdf::27                     0                       # What read queue length does an incoming req see
system.mem_ctrls0.rdQLenPdf::28                     0                       # What read queue length does an incoming req see
system.mem_ctrls0.rdQLenPdf::29                     0                       # What read queue length does an incoming req see
system.mem_ctrls0.rdQLenPdf::30                     0                       # What read queue length does an incoming req see
system.mem_ctrls0.rdQLenPdf::31                     0                       # What read queue length does an incoming req see
system.mem_ctrls0.wrQLenPdf::0                      2                       # What write queue length does an incoming req see
system.mem_ctrls0.wrQLenPdf::1                      2                       # What write queue length does an incoming req see
system.mem_ctrls0.wrQLenPdf::2                      2                       # What write queue length does an incoming req see
system.mem_ctrls0.wrQLenPdf::3                      2                       # What write queue length does an incoming req see
system.mem_ctrls0.wrQLenPdf::4                      2                       # What write queue length does an incoming req see
system.mem_ctrls0.wrQLenPdf::5                      2                       # What write queue length does an incoming req see
system.mem_ctrls0.wrQLenPdf::6                      2                       # What write queue length does an incoming req see
system.mem_ctrls0.wrQLenPdf::7                      2                       # What write queue length does an incoming req see
system.mem_ctrls0.wrQLenPdf::8                      2                       # What write queue length does an incoming req see
system.mem_ctrls0.wrQLenPdf::9                      2                       # What write queue length does an incoming req see
system.mem_ctrls0.wrQLenPdf::10                     2                       # What write queue length does an incoming req see
system.mem_ctrls0.wrQLenPdf::11                     2                       # What write queue length does an incoming req see
system.mem_ctrls0.wrQLenPdf::12                     2                       # What write queue length does an incoming req see
system.mem_ctrls0.wrQLenPdf::13                     2                       # What write queue length does an incoming req see
system.mem_ctrls0.wrQLenPdf::14                     2                       # What write queue length does an incoming req see
system.mem_ctrls0.wrQLenPdf::15                 70277                       # What write queue length does an incoming req see
system.mem_ctrls0.wrQLenPdf::16                 71375                       # What write queue length does an incoming req see
system.mem_ctrls0.wrQLenPdf::17                 76748                       # What write queue length does an incoming req see
system.mem_ctrls0.wrQLenPdf::18                 77230                       # What write queue length does an incoming req see
system.mem_ctrls0.wrQLenPdf::19                 77974                       # What write queue length does an incoming req see
system.mem_ctrls0.wrQLenPdf::20                 77577                       # What write queue length does an incoming req see
system.mem_ctrls0.wrQLenPdf::21                 77733                       # What write queue length does an incoming req see
system.mem_ctrls0.wrQLenPdf::22                 77753                       # What write queue length does an incoming req see
system.mem_ctrls0.wrQLenPdf::23                 77564                       # What write queue length does an incoming req see
system.mem_ctrls0.wrQLenPdf::24                 77374                       # What write queue length does an incoming req see
system.mem_ctrls0.wrQLenPdf::25                 77570                       # What write queue length does an incoming req see
system.mem_ctrls0.wrQLenPdf::26                 77915                       # What write queue length does an incoming req see
system.mem_ctrls0.wrQLenPdf::27                 78597                       # What write queue length does an incoming req see
system.mem_ctrls0.wrQLenPdf::28                 78095                       # What write queue length does an incoming req see
system.mem_ctrls0.wrQLenPdf::29                 77733                       # What write queue length does an incoming req see
system.mem_ctrls0.wrQLenPdf::30                 77562                       # What write queue length does an incoming req see
system.mem_ctrls0.wrQLenPdf::31                 77028                       # What write queue length does an incoming req see
system.mem_ctrls0.wrQLenPdf::32                 76980                       # What write queue length does an incoming req see
system.mem_ctrls0.wrQLenPdf::33                    80                       # What write queue length does an incoming req see
system.mem_ctrls0.wrQLenPdf::34                     5                       # What write queue length does an incoming req see
system.mem_ctrls0.wrQLenPdf::35                     0                       # What write queue length does an incoming req see
system.mem_ctrls0.wrQLenPdf::36                     0                       # What write queue length does an incoming req see
system.mem_ctrls0.wrQLenPdf::37                     0                       # What write queue length does an incoming req see
system.mem_ctrls0.wrQLenPdf::38                     0                       # What write queue length does an incoming req see
system.mem_ctrls0.wrQLenPdf::39                     0                       # What write queue length does an incoming req see
system.mem_ctrls0.wrQLenPdf::40                     0                       # What write queue length does an incoming req see
system.mem_ctrls0.wrQLenPdf::41                     0                       # What write queue length does an incoming req see
system.mem_ctrls0.wrQLenPdf::42                     0                       # What write queue length does an incoming req see
system.mem_ctrls0.wrQLenPdf::43                     0                       # What write queue length does an incoming req see
system.mem_ctrls0.wrQLenPdf::44                     0                       # What write queue length does an incoming req see
system.mem_ctrls0.wrQLenPdf::45                     0                       # What write queue length does an incoming req see
system.mem_ctrls0.wrQLenPdf::46                     0                       # What write queue length does an incoming req see
system.mem_ctrls0.wrQLenPdf::47                     0                       # What write queue length does an incoming req see
system.mem_ctrls0.wrQLenPdf::48                     0                       # What write queue length does an incoming req see
system.mem_ctrls0.wrQLenPdf::49                     0                       # What write queue length does an incoming req see
system.mem_ctrls0.wrQLenPdf::50                     0                       # What write queue length does an incoming req see
system.mem_ctrls0.wrQLenPdf::51                     0                       # What write queue length does an incoming req see
system.mem_ctrls0.wrQLenPdf::52                     0                       # What write queue length does an incoming req see
system.mem_ctrls0.wrQLenPdf::53                     0                       # What write queue length does an incoming req see
system.mem_ctrls0.wrQLenPdf::54                     0                       # What write queue length does an incoming req see
system.mem_ctrls0.wrQLenPdf::55                     0                       # What write queue length does an incoming req see
system.mem_ctrls0.wrQLenPdf::56                     0                       # What write queue length does an incoming req see
system.mem_ctrls0.wrQLenPdf::57                     0                       # What write queue length does an incoming req see
system.mem_ctrls0.wrQLenPdf::58                     0                       # What write queue length does an incoming req see
system.mem_ctrls0.wrQLenPdf::59                     0                       # What write queue length does an incoming req see
system.mem_ctrls0.wrQLenPdf::60                     0                       # What write queue length does an incoming req see
system.mem_ctrls0.wrQLenPdf::61                     0                       # What write queue length does an incoming req see
system.mem_ctrls0.wrQLenPdf::62                     0                       # What write queue length does an incoming req see
system.mem_ctrls0.wrQLenPdf::63                     0                       # What write queue length does an incoming req see
system.mem_ctrls0.bytesPerActivate::samples      3313424                       # Bytes accessed per row activation
system.mem_ctrls0.bytesPerActivate::mean    97.752309                       # Bytes accessed per row activation
system.mem_ctrls0.bytesPerActivate::gmean    81.188746                       # Bytes accessed per row activation
system.mem_ctrls0.bytesPerActivate::stdev    88.248555                       # Bytes accessed per row activation
system.mem_ctrls0.bytesPerActivate::0-127      2610950     78.80%     78.80% # Bytes accessed per row activation
system.mem_ctrls0.bytesPerActivate::128-255       462699     13.96%     92.76% # Bytes accessed per row activation
system.mem_ctrls0.bytesPerActivate::256-383       133067      4.02%     96.78% # Bytes accessed per row activation
system.mem_ctrls0.bytesPerActivate::384-511        52915      1.60%     98.38% # Bytes accessed per row activation
system.mem_ctrls0.bytesPerActivate::512-639        46906      1.42%     99.79% # Bytes accessed per row activation
system.mem_ctrls0.bytesPerActivate::640-767         3003      0.09%     99.88% # Bytes accessed per row activation
system.mem_ctrls0.bytesPerActivate::768-895         1847      0.06%     99.94% # Bytes accessed per row activation
system.mem_ctrls0.bytesPerActivate::896-1023         1131      0.03%     99.97% # Bytes accessed per row activation
system.mem_ctrls0.bytesPerActivate::1024-1151          906      0.03%    100.00% # Bytes accessed per row activation
system.mem_ctrls0.bytesPerActivate::total      3313424                       # Bytes accessed per row activation
system.mem_ctrls0.rdPerTurnAround::samples        76950                       # Reads before turning the bus around for writes
system.mem_ctrls0.rdPerTurnAround::mean     47.792710                       # Reads before turning the bus around for writes
system.mem_ctrls0.rdPerTurnAround::gmean    45.086664                       # Reads before turning the bus around for writes
system.mem_ctrls0.rdPerTurnAround::stdev   114.175274                       # Reads before turning the bus around for writes
system.mem_ctrls0.rdPerTurnAround::0-1023        76949    100.00%    100.00% # Reads before turning the bus around for writes
system.mem_ctrls0.rdPerTurnAround::30720-31743            1      0.00%    100.00% # Reads before turning the bus around for writes
system.mem_ctrls0.rdPerTurnAround::total        76950                       # Reads before turning the bus around for writes
system.mem_ctrls0.wrPerTurnAround::samples        76950                       # Writes before turning the bus around for reads
system.mem_ctrls0.wrPerTurnAround::mean     17.974958                       # Writes before turning the bus around for reads
system.mem_ctrls0.wrPerTurnAround::gmean    17.961398                       # Writes before turning the bus around for reads
system.mem_ctrls0.wrPerTurnAround::stdev     0.689051                       # Writes before turning the bus around for reads
system.mem_ctrls0.wrPerTurnAround::16            5590      7.26%      7.26% # Writes before turning the bus around for reads
system.mem_ctrls0.wrPerTurnAround::17             929      1.21%      8.47% # Writes before turning the bus around for reads
system.mem_ctrls0.wrPerTurnAround::18           61595     80.05%     88.52% # Writes before turning the bus around for reads
system.mem_ctrls0.wrPerTurnAround::19            7623      9.91%     98.42% # Writes before turning the bus around for reads
system.mem_ctrls0.wrPerTurnAround::20            1102      1.43%     99.86% # Writes before turning the bus around for reads
system.mem_ctrls0.wrPerTurnAround::21              99      0.13%     99.98% # Writes before turning the bus around for reads
system.mem_ctrls0.wrPerTurnAround::22              11      0.01%    100.00% # Writes before turning the bus around for reads
system.mem_ctrls0.wrPerTurnAround::32               1      0.00%    100.00% # Writes before turning the bus around for reads
system.mem_ctrls0.wrPerTurnAround::total        76950                       # Writes before turning the bus around for reads
system.mem_ctrls0.totQLat                107291097113                       # Total ticks spent queuing
system.mem_ctrls0.totMemAccLat           176247878363                       # Total ticks spent from burst creation until serviced by the DRAM
system.mem_ctrls0.totBusLat               18388475000                       # Total ticks spent in databus transfers
system.mem_ctrls0.avgQLat                    29173.46                       # Average queueing delay per DRAM burst
system.mem_ctrls0.avgBusLat                   5000.00                       # Average bus latency per DRAM burst
system.mem_ctrls0.avgMemAccLat               47923.46                       # Average memory access latency per DRAM burst
system.mem_ctrls0.avgRdBW                      121.02                       # Average DRAM read bandwidth in MiByte/s
system.mem_ctrls0.avgWrBW                       45.52                       # Average achieved write bandwidth in MiByte/s
system.mem_ctrls0.avgRdBWSys                   121.02                       # Average system read bandwidth in MiByte/s
system.mem_ctrls0.avgWrBWSys                    45.52                       # Average system write bandwidth in MiByte/s
system.mem_ctrls0.peakBW                     12800.00                       # Theoretical peak bandwidth in MiByte/s
system.mem_ctrls0.busUtil                        1.30                       # Data bus utilization in percentage
system.mem_ctrls0.busUtilRead                    0.95                       # Data bus utilization in percentage for reads
system.mem_ctrls0.busUtilWrite                   0.36                       # Data bus utilization in percentage for writes
system.mem_ctrls0.avgRdQLen                      1.08                       # Average read queue length when enqueuing
system.mem_ctrls0.avgWrQLen                     24.23                       # Average write queue length when enqueuing
system.mem_ctrls0.readRowHits                  999678                       # Number of row buffer hits during reads
system.mem_ctrls0.writeRowHits                 747756                       # Number of row buffer hits during writes
system.mem_ctrls0.readRowHitRate                27.18                       # Row buffer hit rate for reads
system.mem_ctrls0.writeRowHitRate               54.06                       # Row buffer hit rate for writes
system.mem_ctrls0.avgGap                    384289.48                       # Average gap between requests
system.mem_ctrls0.pageHitRate                   34.53                       # Row buffer hit rate, read and write combined
system.mem_ctrls0_0.actEnergy             11827331460                       # Energy for activate commands per rank (pJ)
system.mem_ctrls0_0.preEnergy              6286368165                       # Energy for precharge commands per rank (pJ)
system.mem_ctrls0_0.readEnergy            13141391340                       # Energy for read commands per rank (pJ)
system.mem_ctrls0_0.writeEnergy            3610251180                       # Energy for write commands per rank (pJ)
system.mem_ctrls0_0.refreshEnergy        151566536160.000031                       # Energy for refresh commands per rank (pJ)
system.mem_ctrls0_0.actBackEnergy         87515911020                       # Energy for active background per rank (pJ)
system.mem_ctrls0_0.preBackEnergy          4765496640                       # Energy for precharge background per rank (pJ)
system.mem_ctrls0_0.actPowerDownEnergy   593095448670                       # Energy for active power-down per rank (pJ)
system.mem_ctrls0_0.prePowerDownEnergy   114907595520                       # Energy for precharge power-down per rank (pJ)
system.mem_ctrls0_0.selfRefreshEnergy     42585433920                       # Energy for self refresh per rank (pJ)
system.mem_ctrls0_0.totalEnergy          1029335873505                       # Total energy per rank (pJ)
system.mem_ctrls0_0.averagePower           529.258973                       # Core power per rank (mW)
system.mem_ctrls0_0.totalIdleTime        1740414622181                       # Total Idle time Per DRAM Rank
system.mem_ctrls0_0.memoryStateTime::IDLE   5687897091                       # Time in different power states
system.mem_ctrls0_0.memoryStateTime::REF  64213656000                       # Time in different power states
system.mem_ctrls0_0.memoryStateTime::SREF 140569112844                       # Time in different power states
system.mem_ctrls0_0.memoryStateTime::PRE_PDN 299229269565                       # Time in different power states
system.mem_ctrls0_0.memoryStateTime::ACT 134545772177                       # Time in different power states
system.mem_ctrls0_0.memoryStateTime::ACT_PDN 1300616676463                       # Time in different power states
system.mem_ctrls0_1.actEnergy             11830587300                       # Energy for activate commands per rank (pJ)
system.mem_ctrls0_1.preEnergy              6288075915                       # Energy for precharge commands per rank (pJ)
system.mem_ctrls0_1.readEnergy            13117350960                       # Energy for read commands per rank (pJ)
system.mem_ctrls0_1.writeEnergy            3609911880                       # Energy for write commands per rank (pJ)
system.mem_ctrls0_1.refreshEnergy        151409802960.000031                       # Energy for refresh commands per rank (pJ)
system.mem_ctrls0_1.actBackEnergy         88295422500                       # Energy for active background per rank (pJ)
system.mem_ctrls0_1.preBackEnergy          4784053440                       # Energy for precharge background per rank (pJ)
system.mem_ctrls0_1.actPowerDownEnergy   591503729370                       # Energy for active power-down per rank (pJ)
system.mem_ctrls0_1.prePowerDownEnergy   114398799360                       # Energy for precharge power-down per rank (pJ)
system.mem_ctrls0_1.selfRefreshEnergy     43401213660                       # Energy for self refresh per rank (pJ)
system.mem_ctrls0_1.totalEnergy          1028669189325                       # Total energy per rank (pJ)
system.mem_ctrls0_1.averagePower           528.916179                       # Core power per rank (mW)
system.mem_ctrls0_1.totalIdleTime        1738718391627                       # Total Idle time Per DRAM Rank
system.mem_ctrls0_1.memoryStateTime::IDLE   5723748019                       # Time in different power states
system.mem_ctrls0_1.memoryStateTime::REF  64147824000                       # Time in different power states
system.mem_ctrls0_1.memoryStateTime::SREF 143635472609                       # Time in different power states
system.mem_ctrls0_1.memoryStateTime::PRE_PDN 297912890356                       # Time in different power states
system.mem_ctrls0_1.memoryStateTime::ACT 136272275608                       # Time in different power states
system.mem_ctrls0_1.memoryStateTime::ACT_PDN 1297170173548                       # Time in different power states
system.mem_ctrls1.pwrStateResidencyTicks::UNDEFINED 119179558816326                       # Cumulative time (in ticks) in various power states
system.mem_ctrls1.bytes_read::cpu.inst             64                       # Number of bytes read from this memory
system.mem_ctrls1.bytes_read::switch_cpus.inst        21952                       # Number of bytes read from this memory
system.mem_ctrls1.bytes_read::switch_cpus.data    125467904                       # Number of bytes read from this memory
system.mem_ctrls1.bytes_read::switch_cpus_1.inst          320                       # Number of bytes read from this memory
system.mem_ctrls1.bytes_read::switch_cpus_1.data    109911296                       # Number of bytes read from this memory
system.mem_ctrls1.bytes_read::total         235401536                       # Number of bytes read from this memory
system.mem_ctrls1.bytes_inst_read::cpu.inst           64                       # Number of instructions bytes read from this memory
system.mem_ctrls1.bytes_inst_read::switch_cpus.inst        21952                       # Number of instructions bytes read from this memory
system.mem_ctrls1.bytes_inst_read::switch_cpus_1.inst          320                       # Number of instructions bytes read from this memory
system.mem_ctrls1.bytes_inst_read::total        22336                       # Number of instructions bytes read from this memory
system.mem_ctrls1.bytes_written::writebacks     88502976                       # Number of bytes written to this memory
system.mem_ctrls1.bytes_written::total       88502976                       # Number of bytes written to this memory
system.mem_ctrls1.num_reads::cpu.inst               1                       # Number of read requests responded to by this memory
system.mem_ctrls1.num_reads::switch_cpus.inst          343                       # Number of read requests responded to by this memory
system.mem_ctrls1.num_reads::switch_cpus.data      1960436                       # Number of read requests responded to by this memory
system.mem_ctrls1.num_reads::switch_cpus_1.inst            5                       # Number of read requests responded to by this memory
system.mem_ctrls1.num_reads::switch_cpus_1.data      1717364                       # Number of read requests responded to by this memory
system.mem_ctrls1.num_reads::total            3678149                       # Number of read requests responded to by this memory
system.mem_ctrls1.num_writes::writebacks      1382859                       # Number of write requests responded to by this memory
system.mem_ctrls1.num_writes::total           1382859                       # Number of write requests responded to by this memory
system.mem_ctrls1.bw_read::cpu.inst                33                       # Total read bandwidth from this memory (bytes/s)
system.mem_ctrls1.bw_read::switch_cpus.inst        11287                       # Total read bandwidth from this memory (bytes/s)
system.mem_ctrls1.bw_read::switch_cpus.data     64512484                       # Total read bandwidth from this memory (bytes/s)
system.mem_ctrls1.bw_read::switch_cpus_1.inst          165                       # Total read bandwidth from this memory (bytes/s)
system.mem_ctrls1.bw_read::switch_cpus_1.data     56513662                       # Total read bandwidth from this memory (bytes/s)
system.mem_ctrls1.bw_read::total            121037631                       # Total read bandwidth from this memory (bytes/s)
system.mem_ctrls1.bw_inst_read::cpu.inst           33                       # Instruction read bandwidth from this memory (bytes/s)
system.mem_ctrls1.bw_inst_read::switch_cpus.inst        11287                       # Instruction read bandwidth from this memory (bytes/s)
system.mem_ctrls1.bw_inst_read::switch_cpus_1.inst          165                       # Instruction read bandwidth from this memory (bytes/s)
system.mem_ctrls1.bw_inst_read::total           11485                       # Instruction read bandwidth from this memory (bytes/s)
system.mem_ctrls1.bw_write::writebacks       45506035                       # Write bandwidth from this memory (bytes/s)
system.mem_ctrls1.bw_write::total            45506035                       # Write bandwidth from this memory (bytes/s)
system.mem_ctrls1.bw_total::writebacks       45506035                       # Total bandwidth to/from this memory (bytes/s)
system.mem_ctrls1.bw_total::cpu.inst               33                       # Total bandwidth to/from this memory (bytes/s)
system.mem_ctrls1.bw_total::switch_cpus.inst        11287                       # Total bandwidth to/from this memory (bytes/s)
system.mem_ctrls1.bw_total::switch_cpus.data     64512484                       # Total bandwidth to/from this memory (bytes/s)
system.mem_ctrls1.bw_total::switch_cpus_1.inst          165                       # Total bandwidth to/from this memory (bytes/s)
system.mem_ctrls1.bw_total::switch_cpus_1.data     56513662                       # Total bandwidth to/from this memory (bytes/s)
system.mem_ctrls1.bw_total::total           166543666                       # Total bandwidth to/from this memory (bytes/s)
system.mem_ctrls1.readReqs                    3678149                       # Number of read requests accepted
system.mem_ctrls1.writeReqs                   1382859                       # Number of write requests accepted
system.mem_ctrls1.readBursts                  3678149                       # Number of DRAM read bursts, including those serviced by the write queue
system.mem_ctrls1.writeBursts                 1382859                       # Number of DRAM write bursts, including those merged in the write queue
system.mem_ctrls1.bytesReadDRAM             235399296                       # Total number of bytes read from DRAM
system.mem_ctrls1.bytesReadWrQ                   2240                       # Total number of bytes read from write queue
system.mem_ctrls1.bytesWritten               88500992                       # Total number of bytes written to DRAM
system.mem_ctrls1.bytesReadSys              235401536                       # Total read bytes from the system interface side
system.mem_ctrls1.bytesWrittenSys            88502976                       # Total written bytes from the system interface side
system.mem_ctrls1.servicedByWrQ                    35                       # Number of DRAM read bursts serviced by the write queue
system.mem_ctrls1.mergedWrBursts                    0                       # Number of DRAM write bursts merged with an existing one
system.mem_ctrls1.neitherReadNorWriteReqs            0                       # Number of requests that are neither read nor write
system.mem_ctrls1.perBankRdBursts::0           228828                       # Per bank write bursts
system.mem_ctrls1.perBankRdBursts::1           230379                       # Per bank write bursts
system.mem_ctrls1.perBankRdBursts::2           230446                       # Per bank write bursts
system.mem_ctrls1.perBankRdBursts::3           229706                       # Per bank write bursts
system.mem_ctrls1.perBankRdBursts::4           231906                       # Per bank write bursts
system.mem_ctrls1.perBankRdBursts::5           229782                       # Per bank write bursts
system.mem_ctrls1.perBankRdBursts::6           231042                       # Per bank write bursts
system.mem_ctrls1.perBankRdBursts::7           228946                       # Per bank write bursts
system.mem_ctrls1.perBankRdBursts::8           229843                       # Per bank write bursts
system.mem_ctrls1.perBankRdBursts::9           230505                       # Per bank write bursts
system.mem_ctrls1.perBankRdBursts::10          229411                       # Per bank write bursts
system.mem_ctrls1.perBankRdBursts::11          229621                       # Per bank write bursts
system.mem_ctrls1.perBankRdBursts::12          229435                       # Per bank write bursts
system.mem_ctrls1.perBankRdBursts::13          228924                       # Per bank write bursts
system.mem_ctrls1.perBankRdBursts::14          229857                       # Per bank write bursts
system.mem_ctrls1.perBankRdBursts::15          229483                       # Per bank write bursts
system.mem_ctrls1.perBankWrBursts::0            86352                       # Per bank write bursts
system.mem_ctrls1.perBankWrBursts::1            85977                       # Per bank write bursts
system.mem_ctrls1.perBankWrBursts::2            86145                       # Per bank write bursts
system.mem_ctrls1.perBankWrBursts::3            86369                       # Per bank write bursts
system.mem_ctrls1.perBankWrBursts::4            86372                       # Per bank write bursts
system.mem_ctrls1.perBankWrBursts::5            86334                       # Per bank write bursts
system.mem_ctrls1.perBankWrBursts::6            87627                       # Per bank write bursts
system.mem_ctrls1.perBankWrBursts::7            86259                       # Per bank write bursts
system.mem_ctrls1.perBankWrBursts::8            86651                       # Per bank write bursts
system.mem_ctrls1.perBankWrBursts::9            86619                       # Per bank write bursts
system.mem_ctrls1.perBankWrBursts::10           86356                       # Per bank write bursts
system.mem_ctrls1.perBankWrBursts::11           86297                       # Per bank write bursts
system.mem_ctrls1.perBankWrBursts::12           86323                       # Per bank write bursts
system.mem_ctrls1.perBankWrBursts::13           86279                       # Per bank write bursts
system.mem_ctrls1.perBankWrBursts::14           86548                       # Per bank write bursts
system.mem_ctrls1.perBankWrBursts::15           86320                       # Per bank write bursts
system.mem_ctrls1.numRdRetry                        0                       # Number of times read queue was full causing retry
system.mem_ctrls1.numWrRetry                        0                       # Number of times write queue was full causing retry
system.mem_ctrls1.totGap                 1944861022170                       # Total gap between requests
system.mem_ctrls1.readPktSize::0                    0                       # Read request sizes (log2)
system.mem_ctrls1.readPktSize::1                    0                       # Read request sizes (log2)
system.mem_ctrls1.readPktSize::2                    0                       # Read request sizes (log2)
system.mem_ctrls1.readPktSize::3                    0                       # Read request sizes (log2)
system.mem_ctrls1.readPktSize::4                    0                       # Read request sizes (log2)
system.mem_ctrls1.readPktSize::5                    0                       # Read request sizes (log2)
system.mem_ctrls1.readPktSize::6              3678149                       # Read request sizes (log2)
system.mem_ctrls1.writePktSize::0                   0                       # Write request sizes (log2)
system.mem_ctrls1.writePktSize::1                   0                       # Write request sizes (log2)
system.mem_ctrls1.writePktSize::2                   0                       # Write request sizes (log2)
system.mem_ctrls1.writePktSize::3                   0                       # Write request sizes (log2)
system.mem_ctrls1.writePktSize::4                   0                       # Write request sizes (log2)
system.mem_ctrls1.writePktSize::5                   0                       # Write request sizes (log2)
system.mem_ctrls1.writePktSize::6             1382859                       # Write request sizes (log2)
system.mem_ctrls1.rdQLenPdf::0                3220370                       # What read queue length does an incoming req see
system.mem_ctrls1.rdQLenPdf::1                 379552                       # What read queue length does an incoming req see
system.mem_ctrls1.rdQLenPdf::2                  70822                       # What read queue length does an incoming req see
system.mem_ctrls1.rdQLenPdf::3                   7370                       # What read queue length does an incoming req see
system.mem_ctrls1.rdQLenPdf::4                      0                       # What read queue length does an incoming req see
system.mem_ctrls1.rdQLenPdf::5                      0                       # What read queue length does an incoming req see
system.mem_ctrls1.rdQLenPdf::6                      0                       # What read queue length does an incoming req see
system.mem_ctrls1.rdQLenPdf::7                      0                       # What read queue length does an incoming req see
system.mem_ctrls1.rdQLenPdf::8                      0                       # What read queue length does an incoming req see
system.mem_ctrls1.rdQLenPdf::9                      0                       # What read queue length does an incoming req see
system.mem_ctrls1.rdQLenPdf::10                     0                       # What read queue length does an incoming req see
system.mem_ctrls1.rdQLenPdf::11                     0                       # What read queue length does an incoming req see
system.mem_ctrls1.rdQLenPdf::12                     0                       # What read queue length does an incoming req see
system.mem_ctrls1.rdQLenPdf::13                     0                       # What read queue length does an incoming req see
system.mem_ctrls1.rdQLenPdf::14                     0                       # What read queue length does an incoming req see
system.mem_ctrls1.rdQLenPdf::15                     0                       # What read queue length does an incoming req see
system.mem_ctrls1.rdQLenPdf::16                     0                       # What read queue length does an incoming req see
system.mem_ctrls1.rdQLenPdf::17                     0                       # What read queue length does an incoming req see
system.mem_ctrls1.rdQLenPdf::18                     0                       # What read queue length does an incoming req see
system.mem_ctrls1.rdQLenPdf::19                     0                       # What read queue length does an incoming req see
system.mem_ctrls1.rdQLenPdf::20                     0                       # What read queue length does an incoming req see
system.mem_ctrls1.rdQLenPdf::21                     0                       # What read queue length does an incoming req see
system.mem_ctrls1.rdQLenPdf::22                     0                       # What read queue length does an incoming req see
system.mem_ctrls1.rdQLenPdf::23                     0                       # What read queue length does an incoming req see
system.mem_ctrls1.rdQLenPdf::24                     0                       # What read queue length does an incoming req see
system.mem_ctrls1.rdQLenPdf::25                     0                       # What read queue length does an incoming req see
system.mem_ctrls1.rdQLenPdf::26                     0                       # What read queue length does an incoming req see
system.mem_ctrls1.rdQLenPdf::27                     0                       # What read queue length does an incoming req see
system.mem_ctrls1.rdQLenPdf::28                     0                       # What read queue length does an incoming req see
system.mem_ctrls1.rdQLenPdf::29                     0                       # What read queue length does an incoming req see
system.mem_ctrls1.rdQLenPdf::30                     0                       # What read queue length does an incoming req see
system.mem_ctrls1.rdQLenPdf::31                     0                       # What read queue length does an incoming req see
system.mem_ctrls1.wrQLenPdf::0                      2                       # What write queue length does an incoming req see
system.mem_ctrls1.wrQLenPdf::1                      2                       # What write queue length does an incoming req see
system.mem_ctrls1.wrQLenPdf::2                      2                       # What write queue length does an incoming req see
system.mem_ctrls1.wrQLenPdf::3                      2                       # What write queue length does an incoming req see
system.mem_ctrls1.wrQLenPdf::4                      2                       # What write queue length does an incoming req see
system.mem_ctrls1.wrQLenPdf::5                      2                       # What write queue length does an incoming req see
system.mem_ctrls1.wrQLenPdf::6                      2                       # What write queue length does an incoming req see
system.mem_ctrls1.wrQLenPdf::7                      2                       # What write queue length does an incoming req see
system.mem_ctrls1.wrQLenPdf::8                      2                       # What write queue length does an incoming req see
system.mem_ctrls1.wrQLenPdf::9                      2                       # What write queue length does an incoming req see
system.mem_ctrls1.wrQLenPdf::10                     2                       # What write queue length does an incoming req see
system.mem_ctrls1.wrQLenPdf::11                     2                       # What write queue length does an incoming req see
system.mem_ctrls1.wrQLenPdf::12                     2                       # What write queue length does an incoming req see
system.mem_ctrls1.wrQLenPdf::13                     2                       # What write queue length does an incoming req see
system.mem_ctrls1.wrQLenPdf::14                     2                       # What write queue length does an incoming req see
system.mem_ctrls1.wrQLenPdf::15                 70204                       # What write queue length does an incoming req see
system.mem_ctrls1.wrQLenPdf::16                 71308                       # What write queue length does an incoming req see
system.mem_ctrls1.wrQLenPdf::17                 76696                       # What write queue length does an incoming req see
system.mem_ctrls1.wrQLenPdf::18                 77248                       # What write queue length does an incoming req see
system.mem_ctrls1.wrQLenPdf::19                 78073                       # What write queue length does an incoming req see
system.mem_ctrls1.wrQLenPdf::20                 77555                       # What write queue length does an incoming req see
system.mem_ctrls1.wrQLenPdf::21                 77688                       # What write queue length does an incoming req see
system.mem_ctrls1.wrQLenPdf::22                 77696                       # What write queue length does an incoming req see
system.mem_ctrls1.wrQLenPdf::23                 77495                       # What write queue length does an incoming req see
system.mem_ctrls1.wrQLenPdf::24                 77379                       # What write queue length does an incoming req see
system.mem_ctrls1.wrQLenPdf::25                 77560                       # What write queue length does an incoming req see
system.mem_ctrls1.wrQLenPdf::26                 77899                       # What write queue length does an incoming req see
system.mem_ctrls1.wrQLenPdf::27                 78577                       # What write queue length does an incoming req see
system.mem_ctrls1.wrQLenPdf::28                 78144                       # What write queue length does an incoming req see
system.mem_ctrls1.wrQLenPdf::29                 77714                       # What write queue length does an incoming req see
system.mem_ctrls1.wrQLenPdf::30                 77570                       # What write queue length does an incoming req see
system.mem_ctrls1.wrQLenPdf::31                 76985                       # What write queue length does an incoming req see
system.mem_ctrls1.wrQLenPdf::32                 76952                       # What write queue length does an incoming req see
system.mem_ctrls1.wrQLenPdf::33                    77                       # What write queue length does an incoming req see
system.mem_ctrls1.wrQLenPdf::34                     9                       # What write queue length does an incoming req see
system.mem_ctrls1.wrQLenPdf::35                     0                       # What write queue length does an incoming req see
system.mem_ctrls1.wrQLenPdf::36                     0                       # What write queue length does an incoming req see
system.mem_ctrls1.wrQLenPdf::37                     0                       # What write queue length does an incoming req see
system.mem_ctrls1.wrQLenPdf::38                     0                       # What write queue length does an incoming req see
system.mem_ctrls1.wrQLenPdf::39                     0                       # What write queue length does an incoming req see
system.mem_ctrls1.wrQLenPdf::40                     0                       # What write queue length does an incoming req see
system.mem_ctrls1.wrQLenPdf::41                     0                       # What write queue length does an incoming req see
system.mem_ctrls1.wrQLenPdf::42                     0                       # What write queue length does an incoming req see
system.mem_ctrls1.wrQLenPdf::43                     0                       # What write queue length does an incoming req see
system.mem_ctrls1.wrQLenPdf::44                     0                       # What write queue length does an incoming req see
system.mem_ctrls1.wrQLenPdf::45                     0                       # What write queue length does an incoming req see
system.mem_ctrls1.wrQLenPdf::46                     0                       # What write queue length does an incoming req see
system.mem_ctrls1.wrQLenPdf::47                     0                       # What write queue length does an incoming req see
system.mem_ctrls1.wrQLenPdf::48                     0                       # What write queue length does an incoming req see
system.mem_ctrls1.wrQLenPdf::49                     0                       # What write queue length does an incoming req see
system.mem_ctrls1.wrQLenPdf::50                     0                       # What write queue length does an incoming req see
system.mem_ctrls1.wrQLenPdf::51                     0                       # What write queue length does an incoming req see
system.mem_ctrls1.wrQLenPdf::52                     0                       # What write queue length does an incoming req see
system.mem_ctrls1.wrQLenPdf::53                     0                       # What write queue length does an incoming req see
system.mem_ctrls1.wrQLenPdf::54                     0                       # What write queue length does an incoming req see
system.mem_ctrls1.wrQLenPdf::55                     0                       # What write queue length does an incoming req see
system.mem_ctrls1.wrQLenPdf::56                     0                       # What write queue length does an incoming req see
system.mem_ctrls1.wrQLenPdf::57                     0                       # What write queue length does an incoming req see
system.mem_ctrls1.wrQLenPdf::58                     0                       # What write queue length does an incoming req see
system.mem_ctrls1.wrQLenPdf::59                     0                       # What write queue length does an incoming req see
system.mem_ctrls1.wrQLenPdf::60                     0                       # What write queue length does an incoming req see
system.mem_ctrls1.wrQLenPdf::61                     0                       # What write queue length does an incoming req see
system.mem_ctrls1.wrQLenPdf::62                     0                       # What write queue length does an incoming req see
system.mem_ctrls1.wrQLenPdf::63                     0                       # What write queue length does an incoming req see
system.mem_ctrls1.bytesPerActivate::samples      3312935                       # Bytes accessed per row activation
system.mem_ctrls1.bytesPerActivate::mean    97.768245                       # Bytes accessed per row activation
system.mem_ctrls1.bytesPerActivate::gmean    81.195360                       # Bytes accessed per row activation
system.mem_ctrls1.bytesPerActivate::stdev    88.253995                       # Bytes accessed per row activation
system.mem_ctrls1.bytesPerActivate::0-127      2610649     78.80%     78.80% # Bytes accessed per row activation
system.mem_ctrls1.bytesPerActivate::128-255       462065     13.95%     92.75% # Bytes accessed per row activation
system.mem_ctrls1.bytesPerActivate::256-383       133264      4.02%     96.77% # Bytes accessed per row activation
system.mem_ctrls1.bytesPerActivate::384-511        53275      1.61%     98.38% # Bytes accessed per row activation
system.mem_ctrls1.bytesPerActivate::512-639        46793      1.41%     99.79% # Bytes accessed per row activation
system.mem_ctrls1.bytesPerActivate::640-767         3032      0.09%     99.88% # Bytes accessed per row activation
system.mem_ctrls1.bytesPerActivate::768-895         1849      0.06%     99.94% # Bytes accessed per row activation
system.mem_ctrls1.bytesPerActivate::896-1023         1094      0.03%     99.97% # Bytes accessed per row activation
system.mem_ctrls1.bytesPerActivate::1024-1151          914      0.03%    100.00% # Bytes accessed per row activation
system.mem_ctrls1.bytesPerActivate::total      3312935                       # Bytes accessed per row activation
system.mem_ctrls1.rdPerTurnAround::samples        76921                       # Reads before turning the bus around for writes
system.mem_ctrls1.rdPerTurnAround::mean     47.816240                       # Reads before turning the bus around for writes
system.mem_ctrls1.rdPerTurnAround::gmean    45.106291                       # Reads before turning the bus around for writes
system.mem_ctrls1.rdPerTurnAround::stdev   113.988971                       # Reads before turning the bus around for writes
system.mem_ctrls1.rdPerTurnAround::0-1023        76920    100.00%    100.00% # Reads before turning the bus around for writes
system.mem_ctrls1.rdPerTurnAround::30720-31743            1      0.00%    100.00% # Reads before turning the bus around for writes
system.mem_ctrls1.rdPerTurnAround::total        76921                       # Reads before turning the bus around for writes
system.mem_ctrls1.wrPerTurnAround::samples        76921                       # Writes before turning the bus around for reads
system.mem_ctrls1.wrPerTurnAround::mean     17.977249                       # Writes before turning the bus around for reads
system.mem_ctrls1.wrPerTurnAround::gmean    17.963563                       # Writes before turning the bus around for reads
system.mem_ctrls1.wrPerTurnAround::stdev     0.691774                       # Writes before turning the bus around for reads
system.mem_ctrls1.wrPerTurnAround::15               1      0.00%      0.00% # Writes before turning the bus around for reads
system.mem_ctrls1.wrPerTurnAround::16            5610      7.29%      7.29% # Writes before turning the bus around for reads
system.mem_ctrls1.wrPerTurnAround::17             954      1.24%      8.53% # Writes before turning the bus around for reads
system.mem_ctrls1.wrPerTurnAround::18           61304     79.70%     88.23% # Writes before turning the bus around for reads
system.mem_ctrls1.wrPerTurnAround::19            7805     10.15%     98.38% # Writes before turning the bus around for reads
system.mem_ctrls1.wrPerTurnAround::20            1126      1.46%     99.84% # Writes before turning the bus around for reads
system.mem_ctrls1.wrPerTurnAround::21             114      0.15%     99.99% # Writes before turning the bus around for reads
system.mem_ctrls1.wrPerTurnAround::22               7      0.01%    100.00% # Writes before turning the bus around for reads
system.mem_ctrls1.wrPerTurnAround::total        76921                       # Writes before turning the bus around for reads
system.mem_ctrls1.totQLat                107344063299                       # Total ticks spent queuing
system.mem_ctrls1.totMemAccLat           176308700799                       # Total ticks spent from burst creation until serviced by the DRAM
system.mem_ctrls1.totBusLat               18390570000                       # Total ticks spent in databus transfers
system.mem_ctrls1.avgQLat                    29184.54                       # Average queueing delay per DRAM burst
system.mem_ctrls1.avgBusLat                   5000.00                       # Average bus latency per DRAM burst
system.mem_ctrls1.avgMemAccLat               47934.54                       # Average memory access latency per DRAM burst
system.mem_ctrls1.avgRdBW                      121.04                       # Average DRAM read bandwidth in MiByte/s
system.mem_ctrls1.avgWrBW                       45.51                       # Average achieved write bandwidth in MiByte/s
system.mem_ctrls1.avgRdBWSys                   121.04                       # Average system read bandwidth in MiByte/s
system.mem_ctrls1.avgWrBWSys                    45.51                       # Average system write bandwidth in MiByte/s
system.mem_ctrls1.peakBW                     12800.00                       # Theoretical peak bandwidth in MiByte/s
system.mem_ctrls1.busUtil                        1.30                       # Data bus utilization in percentage
system.mem_ctrls1.busUtilRead                    0.95                       # Data bus utilization in percentage for reads
system.mem_ctrls1.busUtilWrite                   0.36                       # Data bus utilization in percentage for writes
system.mem_ctrls1.avgRdQLen                      1.08                       # Average read queue length when enqueuing
system.mem_ctrls1.avgWrQLen                     24.24                       # Average write queue length when enqueuing
system.mem_ctrls1.readRowHits                  999463                       # Number of row buffer hits during reads
system.mem_ctrls1.writeRowHits                 748537                       # Number of row buffer hits during writes
system.mem_ctrls1.readRowHitRate                27.17                       # Row buffer hit rate for reads
system.mem_ctrls1.writeRowHitRate               54.13                       # Row buffer hit rate for writes
system.mem_ctrls1.avgGap                    384283.33                       # Average gap between requests
system.mem_ctrls1.pageHitRate                   34.54                       # Row buffer hit rate, read and write combined
system.mem_ctrls1_0.actEnergy             11832186660                       # Energy for activate commands per rank (pJ)
system.mem_ctrls1_0.preEnergy              6288948765                       # Energy for precharge commands per rank (pJ)
system.mem_ctrls1_0.readEnergy            13144989900                       # Energy for read commands per rank (pJ)
system.mem_ctrls1_0.writeEnergy            3609290700                       # Energy for write commands per rank (pJ)
system.mem_ctrls1_0.refreshEnergy        151650741840.000031                       # Energy for refresh commands per rank (pJ)
system.mem_ctrls1_0.actBackEnergy         87700279800                       # Energy for active background per rank (pJ)
system.mem_ctrls1_0.preBackEnergy          4774790400                       # Energy for precharge background per rank (pJ)
system.mem_ctrls1_0.actPowerDownEnergy   593428153680                       # Energy for active power-down per rank (pJ)
system.mem_ctrls1_0.prePowerDownEnergy   114726333600                       # Energy for precharge power-down per rank (pJ)
system.mem_ctrls1_0.selfRefreshEnergy     42449661075                       # Energy for self refresh per rank (pJ)
system.mem_ctrls1_0.totalEnergy          1029638478570                       # Total energy per rank (pJ)
system.mem_ctrls1_0.averagePower           529.414562                       # Core power per rank (mW)
system.mem_ctrls1_0.totalIdleTime        1739983918682                       # Total Idle time Per DRAM Rank
system.mem_ctrls1_0.memoryStateTime::IDLE   5707738205                       # Time in different power states
system.mem_ctrls1_0.memoryStateTime::REF  64249126000                       # Time in different power states
system.mem_ctrls1_0.memoryStateTime::SREF 139885212391                       # Time in different power states
system.mem_ctrls1_0.memoryStateTime::PRE_PDN 298753391114                       # Time in different power states
system.mem_ctrls1_0.memoryStateTime::ACT 134920249811                       # Time in different power states
system.mem_ctrls1_0.memoryStateTime::ACT_PDN 1301346666619                       # Time in different power states
system.mem_ctrls1_1.actEnergy             11822219220                       # Energy for activate commands per rank (pJ)
system.mem_ctrls1_1.preEnergy              6283639560                       # Energy for precharge commands per rank (pJ)
system.mem_ctrls1_1.readEnergy            13116744060                       # Energy for read commands per rank (pJ)
system.mem_ctrls1_1.writeEnergy            3609071460                       # Energy for write commands per rank (pJ)
system.mem_ctrls1_1.refreshEnergy        151457744880.000031                       # Energy for refresh commands per rank (pJ)
system.mem_ctrls1_1.actBackEnergy         88382585760                       # Energy for active background per rank (pJ)
system.mem_ctrls1_1.preBackEnergy          4767465120                       # Energy for precharge background per rank (pJ)
system.mem_ctrls1_1.actPowerDownEnergy   591403505130                       # Energy for active power-down per rank (pJ)
system.mem_ctrls1_1.prePowerDownEnergy   114561756000                       # Energy for precharge power-down per rank (pJ)
system.mem_ctrls1_1.selfRefreshEnergy     43335646965                       # Energy for self refresh per rank (pJ)
system.mem_ctrls1_1.totalEnergy          1028772775125                       # Total energy per rank (pJ)
system.mem_ctrls1_1.averagePower           528.969440                       # Core power per rank (mW)
system.mem_ctrls1_1.totalIdleTime        1738555859203                       # Total Idle time Per DRAM Rank
system.mem_ctrls1_1.memoryStateTime::IDLE   5688575820                       # Time in different power states
system.mem_ctrls1_1.memoryStateTime::REF  64168476000                       # Time in different power states
system.mem_ctrls1_1.memoryStateTime::SREF 143278178383                       # Time in different power states
system.mem_ctrls1_1.memoryStateTime::PRE_PDN 298336001652                       # Time in different power states
system.mem_ctrls1_1.memoryStateTime::ACT 136448324472                       # Time in different power states
system.mem_ctrls1_1.memoryStateTime::ACT_PDN 1296942827813                       # Time in different power states
system.pwrStateResidencyTicks::UNDEFINED 119179558816326                       # Cumulative time (in ticks) in various power states
system.cpu.branchPred.lookups                       0                       # Number of BP lookups
system.cpu.branchPred.condPredicted                 0                       # Number of conditional branches predicted
system.cpu.branchPred.condIncorrect                 0                       # Number of conditional branches incorrect
system.cpu.branchPred.BTBLookups                    0                       # Number of BTB lookups
system.cpu.branchPred.BTBHits                       0                       # Number of BTB hits
system.cpu.branchPred.BTBCorrect                    0                       # Number of correct BTB predictions (this stat may not work properly.
system.cpu.branchPred.BTBHitPct                   nan                       # BTB Hit Percentage
system.cpu.branchPred.usedRAS                       0                       # Number of times the RAS was used to get a target.
system.cpu.branchPred.RASInCorrect                  0                       # Number of incorrect RAS predictions.
system.cpu.branchPred.indirectLookups               0                       # Number of indirect predictor lookups.
system.cpu.branchPred.indirectHits                  0                       # Number of indirect target hits.
system.cpu.branchPred.indirectMisses                0                       # Number of indirect misses.
system.cpu.branchPredindirectMispredicted            0                       # Number of mispredicted indirect branches.
system.cpu_voltage_domain.voltage                   1                       # Voltage in Volts
system.cpu_clk_domain.clock                       333                       # Clock period in ticks
system.cpu.dtb.fetch_hits                           0                       # ITB hits
system.cpu.dtb.fetch_misses                         0                       # ITB misses
system.cpu.dtb.fetch_acv                            0                       # ITB acv
system.cpu.dtb.fetch_accesses                       0                       # ITB accesses
system.cpu.dtb.read_hits                            0                       # DTB read hits
system.cpu.dtb.read_misses                          0                       # DTB read misses
system.cpu.dtb.read_acv                             0                       # DTB read access violations
system.cpu.dtb.read_accesses                        0                       # DTB read accesses
system.cpu.dtb.write_hits                           0                       # DTB write hits
system.cpu.dtb.write_misses                         0                       # DTB write misses
system.cpu.dtb.write_acv                            0                       # DTB write access violations
system.cpu.dtb.write_accesses                       0                       # DTB write accesses
system.cpu.dtb.data_hits                            0                       # DTB hits
system.cpu.dtb.data_misses                          0                       # DTB misses
system.cpu.dtb.data_acv                             0                       # DTB access violations
system.cpu.dtb.data_accesses                        0                       # DTB accesses
system.cpu.itb.fetch_hits                           3                       # ITB hits
system.cpu.itb.fetch_misses                         0                       # ITB misses
system.cpu.itb.fetch_acv                            0                       # ITB acv
system.cpu.itb.fetch_accesses                       3                       # ITB accesses
system.cpu.itb.read_hits                            0                       # DTB read hits
system.cpu.itb.read_misses                          0                       # DTB read misses
system.cpu.itb.read_acv                             0                       # DTB read access violations
system.cpu.itb.read_accesses                        0                       # DTB read accesses
system.cpu.itb.write_hits                           0                       # DTB write hits
system.cpu.itb.write_misses                         0                       # DTB write misses
system.cpu.itb.write_acv                            0                       # DTB write access violations
system.cpu.itb.write_accesses                       0                       # DTB write accesses
system.cpu.itb.data_hits                            0                       # DTB hits
system.cpu.itb.data_misses                          0                       # DTB misses
system.cpu.itb.data_acv                             0                       # DTB access violations
system.cpu.itb.data_accesses                        0                       # DTB accesses
system.cpu.workload.num_syscalls                    0                       # Number of system calls
system.cpu.pwrStateResidencyTicks::ON    1944862384140                       # Cumulative time (in ticks) in various power states
system.cpu.numCycles                              496                       # number of cpu cycles simulated
system.cpu.numWorkItemsStarted                      0                       # number of work items this cpu started
system.cpu.numWorkItemsCompleted                    0                       # number of work items this cpu completed
system.cpu.fetch.icacheStallCycles                 23                       # Number of cycles fetch is stalled on an Icache miss
system.cpu.fetch.Insts                              7                       # Number of instructions fetch has processed
system.cpu.fetch.Cycles                             1                       # Number of cycles fetch has run and was not squashing or blocked
system.cpu.fetch.SquashCycles                       3                       # Number of cycles fetch has spent squashing
system.cpu.fetch.PendingDrainCycles                 3                       # Number of cycles fetch has spent waiting on pipes to drain
system.cpu.fetch.CacheLines                         3                       # Number of cache lines fetched
system.cpu.fetch.IcacheSquashes                     2                       # Number of outstanding Icache misses that were squashed
system.cpu.fetch.rateDist::samples                 28                       # Number of instructions fetched each cycle (Total)
system.cpu.fetch.rateDist::mean              0.250000                       # Number of instructions fetched each cycle (Total)
system.cpu.fetch.rateDist::stdev             1.322876                       # Number of instructions fetched each cycle (Total)
system.cpu.fetch.rateDist::underflows               0      0.00%      0.00% # Number of instructions fetched each cycle (Total)
system.cpu.fetch.rateDist::0                       27     96.43%     96.43% # Number of instructions fetched each cycle (Total)
system.cpu.fetch.rateDist::1                        0      0.00%     96.43% # Number of instructions fetched each cycle (Total)
system.cpu.fetch.rateDist::2                        0      0.00%     96.43% # Number of instructions fetched each cycle (Total)
system.cpu.fetch.rateDist::3                        0      0.00%     96.43% # Number of instructions fetched each cycle (Total)
system.cpu.fetch.rateDist::4                        0      0.00%     96.43% # Number of instructions fetched each cycle (Total)
system.cpu.fetch.rateDist::5                        0      0.00%     96.43% # Number of instructions fetched each cycle (Total)
system.cpu.fetch.rateDist::6                        0      0.00%     96.43% # Number of instructions fetched each cycle (Total)
system.cpu.fetch.rateDist::7                        1      3.57%    100.00% # Number of instructions fetched each cycle (Total)
system.cpu.fetch.rateDist::8                        0      0.00%    100.00% # Number of instructions fetched each cycle (Total)
system.cpu.fetch.rateDist::overflows                0      0.00%    100.00% # Number of instructions fetched each cycle (Total)
system.cpu.fetch.rateDist::min_value                0                       # Number of instructions fetched each cycle (Total)
system.cpu.fetch.rateDist::max_value                7                       # Number of instructions fetched each cycle (Total)
system.cpu.fetch.rateDist::total                   28                       # Number of instructions fetched each cycle (Total)
[...]
system.switch_cpus_1.iq.rate                 0.802082                       # Inst issue rate
system.switch_cpus_1.iq.fu_busy_cnt         130153305                       # FU busy when requested
system.switch_cpus_1.iq.fu_busy_rate         0.124573                       # FU busy rate (busy events/executed inst)
system.switch_cpus_1.iq.int_inst_queue_reads   2138933491                       # Number of integer instruction queue reads
system.switch_cpus_1.iq.int_inst_queue_writes    441668911                       # Number of integer instruction queue writes
system.switch_cpus_1.iq.int_inst_queue_wakeup_accesses    410718573                       # Number of integer instruction queue wakeup accesses
system.switch_cpus_1.iq.fp_inst_queue_reads   1383535228                       # Number of floating instruction queue reads
system.switch_cpus_1.iq.fp_inst_queue_writes    693495978                       # Number of floating instruction queue writes
system.switch_cpus_1.iq.fp_inst_queue_wakeup_accesses    628615432                       # Number of floating instruction queue wakeup accesses
system.switch_cpus_1.iq.int_alu_accesses    424022491                       # Number of integer alu accesses
system.switch_cpus_1.iq.fp_alu_accesses     750930127                       # Number of floating point alu accesses
system.switch_cpus_1.iew.lsq.thread0.forwLoads      7070840                       # Number of loads that had data forwarded from stores
system.switch_cpus_1.iew.lsq.thread0.invAddrLoads            0                       # Number of loads ignored due to an invalid address
system.switch_cpus_1.iew.lsq.thread0.squashedLoads     16399828                       # Number of loads squashed
system.switch_cpus_1.iew.lsq.thread0.ignoredResponses          262                       # Number of memory responses ignored because the instruction is squashed
system.switch_cpus_1.iew.lsq.thread0.memOrderViolation         8891                       # Number of memory ordering violations
system.switch_cpus_1.iew.lsq.thread0.squashedStores      3933307                       # Number of stores squashed
system.switch_cpus_1.iew.lsq.thread0.invAddrSwpfs            0                       # Number of software prefetches ignored due to an invalid address
system.switch_cpus_1.iew.lsq.thread0.blockedLoads            0                       # Number of blocked loads due to partial load-store forwarding
system.switch_cpus_1.iew.lsq.thread0.rescheduledLoads            0                       # Number of loads that were rescheduled
system.switch_cpus_1.iew.lsq.thread0.cacheBlocked      1603030                       # Number of times an access to memory failed due to the cache being blocked
system.switch_cpus_1.iew.iewIdleCycles              0                       # Number of cycles IEW is idle
system.switch_cpus_1.iew.iewSquashCycles       688803                       # Number of cycles IEW is squashing
system.switch_cpus_1.iew.iewBlockCycles     294325753                       # Number of cycles IEW is blocking
system.switch_cpus_1.iew.iewUnblockCycles     89349167                       # Number of cycles IEW is unblocking
system.switch_cpus_1.iew.iewDispatchedInsts   1068458688                       # Number of instructions dispatched to IQ
system.switch_cpus_1.iew.iewDispSquashedInsts         2859                       # Number of squashed instructions skipped by dispatch
system.switch_cpus_1.iew.iewDispLoadInsts    220366932                       # Number of dispatched load instructions
system.switch_cpus_1.iew.iewDispStoreInsts     66913861                       # Number of dispatched store instructions
system.switch_cpus_1.iew.iewDispNonSpecInsts            0                       # Number of dispatched non-speculative instructions
system.switch_cpus_1.iew.iewIQFullEvents      4373902                       # Number of times the IQ has become full, causing a stall
system.switch_cpus_1.iew.iewLSQFullEvents     83790831                       # Number of times the LSQ has become full, causing a stall
system.switch_cpus_1.iew.memOrderViolationEvents         8891                       # Number of memory order violations
system.switch_cpus_1.iew.predictedTakenIncorrect         2543                       # Number of branches that were predicted taken incorrectly
system.switch_cpus_1.iew.predictedNotTakenIncorrect        74533                       # Number of branches that were predicted not taken incorrectly
system.switch_cpus_1.iew.branchMispredicts        77076                       # Number of branch mispredicts detected at execute
system.switch_cpus_1.iew.iewExecutedInsts   1043779580                       # Number of executed instructions
system.switch_cpus_1.iew.iewExecLoadInsts    220302922                       # Number of load instructions executed
system.switch_cpus_1.iew.iewExecSquashedInsts      1019731                       # Number of squashed instructions skipped in execute
system.switch_cpus_1.iew.exec_swp                   0                       # number of swp insts executed
system.switch_cpus_1.iew.exec_nop              880633                       # number of nop insts executed
system.switch_cpus_1.iew.exec_refs          285393133                       # number of memory reference insts executed
system.switch_cpus_1.iew.exec_branches        7450552                       # Number of branches executed
system.switch_cpus_1.iew.exec_stores         65090211                       # Number of stores executed
system.switch_cpus_1.iew.exec_rate           0.801299                       # Inst execution rate
system.switch_cpus_1.iew.wb_sent           1041550960                       # cumulative count of insts sent to commit
system.switch_cpus_1.iew.wb_count          1039334005                       # cumulative count of insts written-back
system.switch_cpus_1.iew.wb_producers       691436647                       # num instructions producing a value
system.switch_cpus_1.iew.wb_consumers       828146812                       # num instructions consuming a value
system.switch_cpus_1.iew.wb_rate             0.797886                       # insts written-back per cycle
system.switch_cpus_1.iew.wb_fanout           0.834920                       # average fanout of values written-back
system.switch_cpus_1.commit.commitSquashedInsts     54392658                       # The number of squashed insts skipped by commit
system.switch_cpus_1.commit.branchMispredicts        75010                       # The number of times a branch was mispredicted
system.switch_cpus_1.commit.committed_per_cycle::samples   1295559610                       # Number of insts commited each cycle
system.switch_cpus_1.commit.committed_per_cycle::mean     0.772525                       # Number of insts commited each cycle
system.switch_cpus_1.commit.committed_per_cycle::stdev     2.194923                       # Number of insts commited each cycle
system.switch_cpus_1.commit.committed_per_cycle::underflows            0      0.00%      0.00% # Number of insts commited each cycle
system.switch_cpus_1.commit.committed_per_cycle::0   1121315002     86.55%     86.55% # Number of insts commited each cycle
system.switch_cpus_1.commit.committed_per_cycle::1     19580648      1.51%     88.06% # Number of insts commited each cycle
system.switch_cpus_1.commit.committed_per_cycle::2     14915338      1.15%     89.21% # Number of insts commited each cycle
system.switch_cpus_1.commit.committed_per_cycle::3     13585556      1.05%     90.26% # Number of insts commited each cycle
system.switch_cpus_1.commit.committed_per_cycle::4     12042638      0.93%     91.19% # Number of insts commited each cycle
system.switch_cpus_1.commit.committed_per_cycle::5      9987788      0.77%     91.96% # Number of insts commited each cycle
system.switch_cpus_1.commit.committed_per_cycle::6      6849628      0.53%     92.49% # Number of insts commited each cycle
system.switch_cpus_1.commit.committed_per_cycle::7      6787094      0.52%     93.01% # Number of insts commited each cycle
system.switch_cpus_1.commit.committed_per_cycle::8     90495918      6.99%    100.00% # Number of insts commited each cycle
system.switch_cpus_1.commit.committed_per_cycle::overflows            0      0.00%    100.00% # Number of insts commited each cycle
system.switch_cpus_1.commit.committed_per_cycle::min_value            0                       # Number of insts commited each cycle
system.switch_cpus_1.commit.committed_per_cycle::max_value            8                       # Number of insts commited each cycle
system.switch_cpus_1.commit.committed_per_cycle::total   1295559610                       # Number of insts commited each cycle
system.switch_cpus_1.commit.committedInsts   1000852254                       # Number of instructions committed
system.switch_cpus_1.commit.committedOps   1000852254                       # Number of ops (including micro ops) committed
system.switch_cpus_1.commit.swp_count               0                       # Number of s/w prefetches committed
system.switch_cpus_1.commit.refs            266947640                       # Number of memory references committed
system.switch_cpus_1.commit.loads           203967090                       # Number of loads committed
system.switch_cpus_1.commit.membars                 0                       # Number of memory barriers committed
system.switch_cpus_1.commit.branches          6979763                       # Number of branches committed
system.switch_cpus_1.commit.fp_insts        610549758                       # Number of committed floating point instructions.
system.switch_cpus_1.commit.int_insts       635657896                       # Number of committed integer instructions.
system.switch_cpus_1.commit.function_calls           35                       # Number of function calls committed.
system.switch_cpus_1.commit.op_class_0::No_OpClass       852254      0.09%      0.09% # Class of committed instruction
system.switch_cpus_1.commit.op_class_0::IntAlu    306263060     30.60%     30.69% # Class of committed instruction
system.switch_cpus_1.commit.op_class_0::IntMult            0      0.00%     30.69% # Class of committed instruction
system.switch_cpus_1.commit.op_class_0::IntDiv            0      0.00%     30.69% # Class of committed instruction
system.switch_cpus_1.commit.op_class_0::FloatAdd    176372447     17.62%     48.31% # Class of committed instruction
system.switch_cpus_1.commit.op_class_0::FloatCmp     41866240      4.18%     52.49% # Class of committed instruction
system.switch_cpus_1.commit.op_class_0::FloatCvt     62799360      6.27%     58.77% # Class of committed instruction
system.switch_cpus_1.commit.op_class_0::FloatMult    133862276     13.37%     72.14% # Class of committed instruction
system.switch_cpus_1.commit.op_class_0::FloatMultAcc            0      0.00%     72.14% # Class of committed instruction
system.switch_cpus_1.commit.op_class_0::FloatDiv     11888977      1.19%     73.33% # Class of committed instruction
system.switch_cpus_1.commit.op_class_0::FloatMisc            0      0.00%     73.33% # Class of committed instruction
system.switch_cpus_1.commit.op_class_0::FloatSqrt            0      0.00%     73.33% # Class of committed instruction
system.switch_cpus_1.commit.op_class_0::SimdAdd            0      0.00%     73.33% # Class of committed instruction
system.switch_cpus_1.commit.op_class_0::SimdAddAcc            0      0.00%     73.33% # Class of committed instruction
system.switch_cpus_1.commit.op_class_0::SimdAlu            0      0.00%     73.33% # Class of committed instruction
system.switch_cpus_1.commit.op_class_0::SimdCmp            0      0.00%     73.33% # Class of committed instruction
system.switch_cpus_1.commit.op_class_0::SimdCvt            0      0.00%     73.33% # Class of committed instruction
system.switch_cpus_1.commit.op_class_0::SimdMisc            0      0.00%     73.33% # Class of committed instruction
system.switch_cpus_1.commit.op_class_0::SimdMult            0      0.00%     73.33% # Class of committed instruction
system.switch_cpus_1.commit.op_class_0::SimdMultAcc            0      0.00%     73.33% # Class of committed instruction
system.switch_cpus_1.commit.op_class_0::SimdShift            0      0.00%     73.33% # Class of committed instruction
system.switch_cpus_1.commit.op_class_0::SimdShiftAcc            0      0.00%     73.33% # Class of committed instruction
system.switch_cpus_1.commit.op_class_0::SimdSqrt            0      0.00%     73.33% # Class of committed instruction
system.switch_cpus_1.commit.op_class_0::SimdFloatAdd            0      0.00%     73.33% # Class of committed instruction
system.switch_cpus_1.commit.op_class_0::SimdFloatAlu            0      0.00%     73.33% # Class of committed instruction
system.switch_cpus_1.commit.op_class_0::SimdFloatCmp            0      0.00%     73.33% # Class of committed instruction
system.switch_cpus_1.commit.op_class_0::SimdFloatCvt            0      0.00%     73.33% # Class of committed instruction
system.switch_cpus_1.commit.op_class_0::SimdFloatDiv            0      0.00%     73.33% # Class of committed instruction
system.switch_cpus_1.commit.op_class_0::SimdFloatMisc            0      0.00%     73.33% # Class of committed instruction
system.switch_cpus_1.commit.op_class_0::SimdFloatMult            0      0.00%     73.33% # Class of committed instruction
system.switch_cpus_1.commit.op_class_0::SimdFloatMultAcc            0      0.00%     73.33% # Class of committed instruction
system.switch_cpus_1.commit.op_class_0::SimdFloatSqrt            0      0.00%     73.33% # Class of committed instruction
system.switch_cpus_1.commit.op_class_0::MemRead     62696358      6.26%     79.59% # Class of committed instruction
system.switch_cpus_1.commit.op_class_0::MemWrite     20490824      2.05%     81.64% # Class of committed instruction
system.switch_cpus_1.commit.op_class_0::FloatMemRead    141270732     14.12%     95.75% # Class of committed instruction
system.switch_cpus_1.commit.op_class_0::FloatMemWrite     42489726      4.25%    100.00% # Class of committed instruction
system.switch_cpus_1.commit.op_class_0::IprAccess            0      0.00%    100.00% # Class of committed instruction
system.switch_cpus_1.commit.op_class_0::InstPrefetch            0      0.00%    100.00% # Class of committed instruction
system.switch_cpus_1.commit.op_class_0::total   1000852254                       # Class of committed instruction
system.switch_cpus_1.commit.bw_lim_events     90495918                       # number cycles where commit BW limit reached
system.switch_cpus_1.rob.rob_reads         2252425365                       # The number of ROB reads
system.switch_cpus_1.rob.rob_writes        2117537182                       # The number of ROB writes
system.switch_cpus_1.timesIdled                    14                       # Number of times that the entire CPU went into an idle state and unscheduled itself
system.switch_cpus_1.idleCycles                  2424                       # Total number of cycles that the CPU has spent unscheduled due to idling
system.switch_cpus_1.committedInsts        1000000000                       # Number of Instructions Simulated
system.switch_cpus_1.committedOps          1000000000                       # Number of Ops (including micro ops) Simulated
system.switch_cpus_1.cpi                     1.302609                       # CPI: Cycles Per Instruction
system.switch_cpus_1.cpi_total               1.302609                       # CPI: Total CPI of All Threads
system.switch_cpus_1.ipc                     0.767690                       # IPC: Instructions Per Cycle
system.switch_cpus_1.ipc_total               0.767690                       # IPC: Total IPC of All Threads
system.switch_cpus_1.int_regfile_reads      878409506                       # number of integer regfile reads
system.switch_cpus_1.int_regfile_writes     423828358                       # number of integer regfile writes
system.switch_cpus_1.fp_regfile_reads       850979973                       # number of floating regfile reads
system.switch_cpus_1.fp_regfile_writes      543194236                       # number of floating regfile writes
system.tol3bus.snoop_filter.tot_requests     15288225                       # Total number of requests made to the snoop filter.
system.tol3bus.snoop_filter.hit_single_requests      7642051                       # Number of requests hitting in the snoop filter with a single holder of the requested data.
system.tol3bus.snoop_filter.hit_multi_requests            0                       # Number of requests hitting in the snoop filter with multiple (>1) holders of the requested data.
system.tol3bus.snoop_filter.tot_snoops        4572996                       # Total number of snoops made to the snoop filter.
system.tol3bus.snoop_filter.hit_single_snoops      4572996                       # Number of snoops hitting in the snoop filter with a single holder of the requested data.
system.tol3bus.snoop_filter.hit_multi_snoops            0                       # Number of snoops hitting in the snoop filter with multiple (>1) holders of the requested data.
system.tol3bus.pwrStateResidencyTicks::UNDEFINED 119179558816326                       # Cumulative time (in ticks) in various power states
system.tol3bus.trans_dist::ReadResp           6639092                       # Transaction distribution
system.tol3bus.trans_dist::WritebackDirty      5598623                       # Transaction distribution
system.tol3bus.trans_dist::CleanEvict        10618550                       # Transaction distribution
system.tol3bus.trans_dist::ReadExReq          1007082                       # Transaction distribution
system.tol3bus.trans_dist::ReadExResp         1007082                       # Transaction distribution
system.tol3bus.trans_dist::ReadSharedReq      6639092                       # Transaction distribution
system.tol3bus.pkt_count_system.cpu.l2.mem_side::system.l3.cpu_side     22934399                       # Packet count per connected master and slave (bytes)
system.tol3bus.pkt_size_system.cpu.l2.mem_side::system.l3.cpu_side    670639232                       # Cumulative packet size per connected master and slave (bytes)
system.tol3bus.snoops                         8575122                       # Total snoops (count)
system.tol3bus.snoopTraffic                 177027776                       # Total snoop traffic (bytes)
system.tol3bus.snoop_fanout::samples         16221296                       # Request fanout histogram
system.tol3bus.snoop_fanout::mean            0.281913                       # Request fanout histogram
system.tol3bus.snoop_fanout::stdev           0.449931                       # Request fanout histogram
system.tol3bus.snoop_fanout::underflows             0      0.00%      0.00% # Request fanout histogram
system.tol3bus.snoop_fanout::0               11648300     71.81%     71.81% # Request fanout histogram
system.tol3bus.snoop_fanout::1                4572996     28.19%    100.00% # Request fanout histogram
system.tol3bus.snoop_fanout::overflows              0      0.00%    100.00% # Request fanout histogram
system.tol3bus.snoop_fanout::min_value              0                       # Request fanout histogram
system.tol3bus.snoop_fanout::max_value              1                       # Request fanout histogram
system.tol3bus.snoop_fanout::total           16221296                       # Request fanout histogram
system.tol3bus.reqLayer0.occupancy         6034222737                       # Layer occupancy (ticks)
system.tol3bus.reqLayer0.utilization              0.3                       # Layer utilization (%)
system.tol3bus.respLayer0.occupancy        5092351884                       # Layer occupancy (ticks)
system.tol3bus.respLayer0.utilization             0.3                       # Layer utilization (%)

---------- End Simulation Statistics   ----------
