
---------- Begin Simulation Statistics ----------
sim_seconds                                  4.128739                       # Number of seconds simulated
sim_ticks                                4128739135326                       # Number of ticks simulated
final_tick                               24113840495193                       # Number of ticks from beginning of simulation (restored from checkpoints and never reset)
sim_freq                                 1000000000000                       # Frequency of simulated ticks
host_inst_rate                                 111993                       # Simulator instruction rate (inst/s)
host_op_rate                                   111993                       # Simulator op (including micro ops) rate (op/s)
host_tick_rate                              385323383                       # Simulator tick rate (ticks/s)
host_mem_usage                                2452816                       # Number of bytes of host memory used
host_seconds                                 10715.00                       # Real time elapsed on the host
sim_insts                                  1200000007                       # Number of instructions simulated
sim_ops                                    1200000007                       # Number of ops (including micro ops) simulated
system.voltage_domain.voltage                       1                       # Voltage in Volts
system.clk_domain.clock                          1000                       # Clock period in ticks
system.mem_ctrls0.pwrStateResidencyTicks::UNDEFINED 24113840495193                       # Cumulative time (in ticks) in various power states
system.mem_ctrls0.bytes_read::cpu.inst             64                       # Number of bytes read from this memory
system.mem_ctrls0.bytes_read::cpu.data             64                       # Number of bytes read from this memory
system.mem_ctrls0.bytes_read::switch_cpus.inst         1152                       # Number of bytes read from this memory
system.mem_ctrls0.bytes_read::switch_cpus.data    885766656                       # Number of bytes read from this memory
system.mem_ctrls0.bytes_read::switch_cpus_1.data    183802112                       # Number of bytes read from this memory
system.mem_ctrls0.bytes_read::total        1069570048                       # Number of bytes read from this memory
system.mem_ctrls0.bytes_inst_read::cpu.inst           64                       # Number of instructions bytes read from this memory
system.mem_ctrls0.bytes_inst_read::switch_cpus.inst         1152                       # Number of instructions bytes read from this memory
system.mem_ctrls0.bytes_inst_read::total         1216                       # Number of instructions bytes read from this memory
system.mem_ctrls0.bytes_written::writebacks    762989120                       # Number of bytes written to this memory
system.mem_ctrls0.bytes_written::total      762989120                       # Number of bytes written to this memory
system.mem_ctrls0.num_reads::cpu.inst               1                       # Number of read requests responded to by this memory
system.mem_ctrls0.num_reads::cpu.data               1                       # Number of read requests responded to by this memory
system.mem_ctrls0.num_reads::switch_cpus.inst           18                       # Number of read requests responded to by this memory
system.mem_ctrls0.num_reads::switch_cpus.data     13840104                       # Number of read requests responded to by this memory
system.mem_ctrls0.num_reads::switch_cpus_1.data      2871908                       # Number of read requests responded to by this memory
system.mem_ctrls0.num_reads::total           16712032                       # Number of read requests responded to by this memory
system.mem_ctrls0.num_writes::writebacks     11921705                       # Number of write requests responded to by this memory
system.mem_ctrls0.num_writes::total          11921705                       # Number of write requests responded to by this memory
system.mem_ctrls0.bw_read::cpu.inst                16                       # Total read bandwidth from this memory (bytes/s)
system.mem_ctrls0.bw_read::cpu.data                16                       # Total read bandwidth from this memory (bytes/s)
system.mem_ctrls0.bw_read::switch_cpus.inst          279                       # Total read bandwidth from this memory (bytes/s)
system.mem_ctrls0.bw_read::switch_cpus.data    214536842                       # Total read bandwidth from this memory (bytes/s)
system.mem_ctrls0.bw_read::switch_cpus_1.data     44517734                       # Total read bandwidth from this memory (bytes/s)
system.mem_ctrls0.bw_read::total            259054886                       # Total read bandwidth from this memory (bytes/s)
system.mem_ctrls0.bw_inst_read::cpu.inst           16                       # Instruction read bandwidth from this memory (bytes/s)
system.mem_ctrls0.bw_inst_read::switch_cpus.inst          279                       # Instruction read bandwidth from this memory (bytes/s)
system.mem_ctrls0.bw_inst_read::total             295                       # Instruction read bandwidth from this memory (bytes/s)
system.mem_ctrls0.bw_write::writebacks      184799547                       # Write bandwidth from this memory (bytes/s)
system.mem_ctrls0.bw_write::total           184799547                       # Write bandwidth from this memory (bytes/s)
system.mem_ctrls0.bw_total::writebacks      184799547                       # Total bandwidth to/from this memory (bytes/s)
system.mem_ctrls0.bw_total::cpu.inst               16                       # Total bandwidth to/from this memory (bytes/s)
system.mem_ctrls0.bw_total::cpu.data               16                       # Total bandwidth to/from this memory (bytes/s)
system.mem_ctrls0.bw_total::switch_cpus.inst          279                       # Total bandwidth to/from this memory (bytes/s)
system.mem_ctrls0.bw_total::switch_cpus.data    214536842                       # Total bandwidth to/from this memory (bytes/s)
system.mem_ctrls0.bw_total::switch_cpus_1.data     44517734                       # Total bandwidth to/from this memory (bytes/s)
system.mem_ctrls0.bw_total::total           443854433                       # Total bandwidth to/from this memory (bytes/s)
system.mem_ctrls0.readReqs                   16712033                       # Number of read requests accepted
system.mem_ctrls0.writeReqs                  11921705                       # Number of write requests accepted
system.mem_ctrls0.readBursts                 16712033                       # Number of DRAM read bursts, including those serviced by the write queue
system.mem_ctrls0.writeBursts                11921705                       # Number of DRAM write bursts, including those merged in the write queue
system.mem_ctrls0.bytesReadDRAM            1069570112                       # Total number of bytes read from DRAM
system.mem_ctrls0.bytesReadWrQ                      0                       # Total number of bytes read from write queue
system.mem_ctrls0.bytesWritten              762987904                       # Total number of bytes written to DRAM
system.mem_ctrls0.bytesReadSys             1069570112                       # Total read bytes from the system interface side
system.mem_ctrls0.bytesWrittenSys           762989120                       # Total written bytes from the system interface side
system.mem_ctrls0.servicedByWrQ                     0                       # Number of DRAM read bursts serviced by the write queue
system.mem_ctrls0.mergedWrBursts                    0                       # Number of DRAM write bursts merged with an existing one
system.mem_ctrls0.neitherReadNorWriteReqs            0                       # Number of requests that are neither read nor write
system.mem_ctrls0.perBankRdBursts::0          1044231                       # Per bank write bursts
system.mem_ctrls0.perBankRdBursts::1          1044035                       # Per bank write bursts
system.mem_ctrls0.perBankRdBursts::2          1045703                       # Per bank write bursts
system.mem_ctrls0.perBankRdBursts::3          1045099                       # Per bank write bursts
system.mem_ctrls0.perBankRdBursts::4          1044745                       # Per bank write bursts
system.mem_ctrls0.perBankRdBursts::5          1045712                       # Per bank write bursts
system.mem_ctrls0.perBankRdBursts::6          1046763                       # Per bank write bursts
system.mem_ctrls0.perBankRdBursts::7          1045910                       # Per bank write bursts
system.mem_ctrls0.perBankRdBursts::8          1045407                       # Per bank write bursts
system.mem_ctrls0.perBankRdBursts::9          1044619                       # Per bank write bursts
system.mem_ctrls0.perBankRdBursts::10         1042611                       # Per bank write bursts
system.mem_ctrls0.perBankRdBursts::11         1043577                       # Per bank write bursts
system.mem_ctrls0.perBankRdBursts::12         1044482                       # Per bank write bursts
system.mem_ctrls0.perBankRdBursts::13         1043101                       # Per bank write bursts
system.mem_ctrls0.perBankRdBursts::14         1043231                       # Per bank write bursts
system.mem_ctrls0.perBankRdBursts::15         1042807                       # Per bank write bursts
system.mem_ctrls0.perBankWrBursts::0           745172                       # Per bank write bursts
system.mem_ctrls0.perBankWrBursts::1           744920                       # Per bank write bursts
system.mem_ctrls0.perBankWrBursts::2           746472                       # Per bank write bursts
system.mem_ctrls0.perBankWrBursts::3           745688                       # Per bank write bursts
system.mem_ctrls0.perBankWrBursts::4           745210                       # Per bank write bursts
system.mem_ctrls0.perBankWrBursts::5           746132                       # Per bank write bursts
system.mem_ctrls0.perBankWrBursts::6           747065                       # Per bank write bursts
system.mem_ctrls0.perBankWrBursts::7           746213                       # Per bank write bursts
system.mem_ctrls0.perBankWrBursts::8           745682                       # Per bank write bursts
system.mem_ctrls0.perBankWrBursts::9           744884                       # Per bank write bursts
system.mem_ctrls0.perBankWrBursts::10          743037                       # Per bank write bursts
system.mem_ctrls0.perBankWrBursts::11          744155                       # Per bank write bursts
system.mem_ctrls0.perBankWrBursts::12          745061                       # Per bank write bursts
system.mem_ctrls0.perBankWrBursts::13          744038                       # Per bank write bursts
system.mem_ctrls0.perBankWrBursts::14          744188                       # Per bank write bursts
system.mem_ctrls0.perBankWrBursts::15          743769                       # Per bank write bursts
system.mem_ctrls0.numRdRetry                        0                       # Number of times read queue was full causing retry
system.mem_ctrls0.numWrRetry                        0                       # Number of times write queue was full causing retry
system.mem_ctrls0.totGap                 4128739010118                       # Total gap between requests
system.mem_ctrls0.readPktSize::0                    0                       # Read request sizes (log2)
system.mem_ctrls0.readPktSize::1                    0                       # Read request sizes (log2)
system.mem_ctrls0.readPktSize::2                    0                       # Read request sizes (log2)
system.mem_ctrls0.readPktSize::3                    0                       # Read request sizes (log2)
system.mem_ctrls0.readPktSize::4                    0                       # Read request sizes (log2)
system.mem_ctrls0.readPktSize::5                    0                       # Read request sizes (log2)
system.mem_ctrls0.readPktSize::6             16712033                       # Read request sizes (log2)
system.mem_ctrls0.writePktSize::0                   0                       # Write request sizes (log2)
system.mem_ctrls0.writePktSize::1                   0                       # Write request sizes (log2)
system.mem_ctrls0.writePktSize::2                   0                       # Write request sizes (log2)
system.mem_ctrls0.writePktSize::3                   0                       # Write request sizes (log2)
system.mem_ctrls0.writePktSize::4                   0                       # Write request sizes (log2)
system.mem_ctrls0.writePktSize::5                   0                       # Write request sizes (log2)
system.mem_ctrls0.writePktSize::6            11921705                       # Write request sizes (log2)
system.mem_ctrls0.rdQLenPdf::0               15491981                       # What read queue length does an incoming req see
system.mem_ctrls0.rdQLenPdf::1                 925144                       # What read queue length does an incoming req see
system.mem_ctrls0.rdQLenPdf::2                 270587                       # What read queue length does an incoming req see
system.mem_ctrls0.rdQLenPdf::3                  24321                       # What read queue length does an incoming req see
system.mem_ctrls0.rdQLenPdf::4                      0                       # What read queue length does an incoming req see
system.mem_ctrls0.rdQLenPdf::5                      0                       # What read queue length does an incoming req see
system.mem_ctrls0.rdQLenPdf::6                      0                       # What read queue length does an incoming req see
system.mem_ctrls0.rdQLenPdf::7                      0                       # What read queue length does an incoming req see
system.mem_ctrls0.rdQLenPdf::8                      0                       # What read queue length does an incoming req see
system.mem_ctrls0.rdQLenPdf::9                      0                       # What read queue length does an incoming req see
system.mem_ctrls0.rdQLenPdf::10                     0                       # What read queue length does an incoming req see
system.mem_ctrls0.rdQLenPdf::11                     0                       # What read queue length does an incoming req see
system.mem_ctrls0.rdQLenPdf::12                     0                       # What read queue length does an incoming req see
system.mem_ctrls0.rdQLenPdf::13                     0                       # What read queue length does an incoming req see
system.mem_ctrls0.rdQLenPdf::14                     0                       # What read queue length does an incoming req see
system.mem_ctrls0.rdQLenPdf::15                     0                       # What read queue length does an incoming req see
system.mem_ctrls0.rdQLenPdf::16                     0                       # What read queue length does an incoming req see
system.mem_ctrls0.rdQLenPdf::17                     0                       # What read queue length does an incoming req see
system.mem_ctrls0.rdQLenPdf::18                     0                       # What read queue length does an incoming req see
system.mem_ctrls0.rdQLenPdf::19                     0                       # What read queue length does an incoming req see
system.mem_ctrls0.rdQLenPdf::20                     0                       # What read queue length does an incoming req see
system.mem_ctrls0.rdQLenPdf::21                     0                       # What read queue length does an incoming req see
system.mem_ctrls0.rdQLenPdf::22                     0                       # What read queue length does an incoming req see
system.mem_ctrls0.rdQLenPdf::23                     0                       # What read queue length does an incoming req see
system.mem_ctrls0.rdQLenPdf::24                     0                       # What read queue length does an incoming req see
system.mem_ctrls0.rdQLenPdf::25                     0                       # What read queue length does an incoming req see
system.mem_ctrls0.rdQLenPdf::26                     0                       # What read queue length does an incoming req see
system.mem_ctrls0.rdQLenPdf::27                     0                       # What read queue length does an incoming req see
system.mem_ctrls0.rdQLenPdf::28                     0                       # What read queue length does an incoming req see
system.mem_ctrls0.rdQLenPdf::29                     0                       # What read queue length does an incoming req see
system.mem_ctrls0.rdQLenPdf::30                     0                       # What read queue length does an incoming req see
system.mem_ctrls0.rdQLenPdf::31                     0                       # What read queue length does an incoming req see
system.mem_ctrls0.wrQLenPdf::0                      2                       # What write queue length does an incoming req see
system.mem_ctrls0.wrQLenPdf::1                      2                       # What write queue length does an incoming req see
system.mem_ctrls0.wrQLenPdf::2                      2                       # What write queue length does an incoming req see
system.mem_ctrls0.wrQLenPdf::3                      2                       # What write queue length does an incoming req see
system.mem_ctrls0.wrQLenPdf::4                      2                       # What write queue length does an incoming req see
system.mem_ctrls0.wrQLenPdf::5                      2                       # What write queue length does an incoming req see
system.mem_ctrls0.wrQLenPdf::6                      2                       # What write queue length does an incoming req see
system.mem_ctrls0.wrQLenPdf::7                      2                       # What write queue length does an incoming req see
system.mem_ctrls0.wrQLenPdf::8                      2                       # What write queue length does an incoming req see
system.mem_ctrls0.wrQLenPdf::9                      2                       # What write queue length does an incoming req see
system.mem_ctrls0.wrQLenPdf::10                     2                       # What write queue length does an incoming req see
system.mem_ctrls0.wrQLenPdf::11                     2                       # What write queue length does an incoming req see
system.mem_ctrls0.wrQLenPdf::12                     2                       # What write queue length does an incoming req see
system.mem_ctrls0.wrQLenPdf::13                     2                       # What write queue length does an incoming req see
system.mem_ctrls0.wrQLenPdf::14                     2                       # What write queue length does an incoming req see
system.mem_ctrls0.wrQLenPdf::15                306589                       # What write queue length does an incoming req see
system.mem_ctrls0.wrQLenPdf::16                327289                       # What write queue length does an incoming req see
system.mem_ctrls0.wrQLenPdf::17                616802                       # What write queue length does an incoming req see
system.mem_ctrls0.wrQLenPdf::18                688955                       # What write queue length does an incoming req see
system.mem_ctrls0.wrQLenPdf::19                708930                       # What write queue length does an incoming req see
system.mem_ctrls0.wrQLenPdf::20                712420                       # What write queue length does an incoming req see
system.mem_ctrls0.wrQLenPdf::21                711859                       # What write queue length does an incoming req see
system.mem_ctrls0.wrQLenPdf::22                710840                       # What write queue length does an incoming req see
system.mem_ctrls0.wrQLenPdf::23                710090                       # What write queue length does an incoming req see
system.mem_ctrls0.wrQLenPdf::24                709807                       # What write queue length does an incoming req see
system.mem_ctrls0.wrQLenPdf::25                710702                       # What write queue length does an incoming req see
system.mem_ctrls0.wrQLenPdf::26                710693                       # What write queue length does an incoming req see
system.mem_ctrls0.wrQLenPdf::27                722248                       # What write queue length does an incoming req see
system.mem_ctrls0.wrQLenPdf::28                722134                       # What write queue length does an incoming req see
system.mem_ctrls0.wrQLenPdf::29                724333                       # What write queue length does an incoming req see
system.mem_ctrls0.wrQLenPdf::30                721500                       # What write queue length does an incoming req see
system.mem_ctrls0.wrQLenPdf::31                702367                       # What write queue length does an incoming req see
system.mem_ctrls0.wrQLenPdf::32                701548                       # What write queue length does an incoming req see
system.mem_ctrls0.wrQLenPdf::33                  1826                       # What write queue length does an incoming req see
system.mem_ctrls0.wrQLenPdf::34                   531                       # What write queue length does an incoming req see
system.mem_ctrls0.wrQLenPdf::35                   155                       # What write queue length does an incoming req see
system.mem_ctrls0.wrQLenPdf::36                    44                       # What write queue length does an incoming req see
system.mem_ctrls0.wrQLenPdf::37                    11                       # What write queue length does an incoming req see
system.mem_ctrls0.wrQLenPdf::38                     2                       # What write queue length does an incoming req see
system.mem_ctrls0.wrQLenPdf::39                     0                       # What write queue length does an incoming req see
system.mem_ctrls0.wrQLenPdf::40                     0                       # What write queue length does an incoming req see
system.mem_ctrls0.wrQLenPdf::41                     0                       # What write queue length does an incoming req see
system.mem_ctrls0.wrQLenPdf::42                     0                       # What write queue length does an incoming req see
system.mem_ctrls0.wrQLenPdf::43                     0                       # What write queue length does an incoming req see
system.mem_ctrls0.wrQLenPdf::44                     0                       # What write queue length does an incoming req see
system.mem_ctrls0.wrQLenPdf::45                     0                       # What write queue length does an incoming req see
system.mem_ctrls0.wrQLenPdf::46                     0                       # What write queue length does an incoming req see
system.mem_ctrls0.wrQLenPdf::47                     0                       # What write queue length does an incoming req see
system.mem_ctrls0.wrQLenPdf::48                     0                       # What write queue length does an incoming req see
system.mem_ctrls0.wrQLenPdf::49                     0                       # What write queue length does an incoming req see
system.mem_ctrls0.wrQLenPdf::50                     0                       # What write queue length does an incoming req see
system.mem_ctrls0.wrQLenPdf::51                     0                       # What write queue length does an incoming req see
system.mem_ctrls0.wrQLenPdf::52                     0                       # What write queue length does an incoming req see
system.mem_ctrls0.wrQLenPdf::53                     0                       # What write queue length does an incoming req see
system.mem_ctrls0.wrQLenPdf::54                     0                       # What write queue length does an incoming req see
system.mem_ctrls0.wrQLenPdf::55                     0                       # What write queue length does an incoming req see
system.mem_ctrls0.wrQLenPdf::56                     0                       # What write queue length does an incoming req see
system.mem_ctrls0.wrQLenPdf::57                     0                       # What write queue length does an incoming req see
system.mem_ctrls0.wrQLenPdf::58                     0                       # What write queue length does an incoming req see
system.mem_ctrls0.wrQLenPdf::59                     0                       # What write queue length does an incoming req see
system.mem_ctrls0.wrQLenPdf::60                     0                       # What write queue length does an incoming req see
system.mem_ctrls0.wrQLenPdf::61                     0                       # What write queue length does an incoming req see
system.mem_ctrls0.wrQLenPdf::62                     0                       # What write queue length does an incoming req see
system.mem_ctrls0.wrQLenPdf::63                     0                       # What write queue length does an incoming req see
system.mem_ctrls0.bytesPerActivate::samples     18561509                       # Bytes accessed per row activation
system.mem_ctrls0.bytesPerActivate::mean    98.728897                       # Bytes accessed per row activation
system.mem_ctrls0.bytesPerActivate::gmean    86.760404                       # Bytes accessed per row activation
system.mem_ctrls0.bytesPerActivate::stdev    61.870156                       # Bytes accessed per row activation
system.mem_ctrls0.bytesPerActivate::0-127     12333628     66.45%     66.45% # Bytes accessed per row activation
system.mem_ctrls0.bytesPerActivate::128-255      5321525     28.67%     95.12% # Bytes accessed per row activation
system.mem_ctrls0.bytesPerActivate::256-383       767349      4.13%     99.25% # Bytes accessed per row activation
system.mem_ctrls0.bytesPerActivate::384-511       115825      0.62%     99.88% # Bytes accessed per row activation
system.mem_ctrls0.bytesPerActivate::512-639        16490      0.09%     99.96% # Bytes accessed per row activation
system.mem_ctrls0.bytesPerActivate::640-767         4431      0.02%     99.99% # Bytes accessed per row activation
system.mem_ctrls0.bytesPerActivate::768-895         1693      0.01%    100.00% # Bytes accessed per row activation
system.mem_ctrls0.bytesPerActivate::896-1023          376      0.00%    100.00% # Bytes accessed per row activation
system.mem_ctrls0.bytesPerActivate::1024-1151          192      0.00%    100.00% # Bytes accessed per row activation
system.mem_ctrls0.bytesPerActivate::total     18561509                       # Bytes accessed per row activation
system.mem_ctrls0.rdPerTurnAround::samples       700883                       # Reads before turning the bus around for writes
system.mem_ctrls0.rdPerTurnAround::mean     23.844246                       # Reads before turning the bus around for writes
system.mem_ctrls0.rdPerTurnAround::gmean    23.228758                       # Reads before turning the bus around for writes
system.mem_ctrls0.rdPerTurnAround::stdev    39.648108                       # Reads before turning the bus around for writes
system.mem_ctrls0.rdPerTurnAround::0-2047       700882    100.00%    100.00% # Reads before turning the bus around for writes
system.mem_ctrls0.rdPerTurnAround::32768-34815            1      0.00%    100.00% # Reads before turning the bus around for writes
system.mem_ctrls0.rdPerTurnAround::total       700883                       # Reads before turning the bus around for writes
system.mem_ctrls0.wrPerTurnAround::samples       700883                       # Writes before turning the bus around for reads
system.mem_ctrls0.wrPerTurnAround::mean     17.009524                       # Writes before turning the bus around for reads
system.mem_ctrls0.wrPerTurnAround::gmean    16.971610                       # Writes before turning the bus around for reads
system.mem_ctrls0.wrPerTurnAround::stdev     1.147655                       # Writes before turning the bus around for reads
system.mem_ctrls0.wrPerTurnAround::16          375848     53.62%     53.62% # Writes before turning the bus around for reads
system.mem_ctrls0.wrPerTurnAround::17           12401      1.77%     55.39% # Writes before turning the bus around for reads
system.mem_ctrls0.wrPerTurnAround::18          253478     36.17%     91.56% # Writes before turning the bus around for reads
system.mem_ctrls0.wrPerTurnAround::19           49937      7.12%     98.68% # Writes before turning the bus around for reads
system.mem_ctrls0.wrPerTurnAround::20            7943      1.13%     99.82% # Writes before turning the bus around for reads
system.mem_ctrls0.wrPerTurnAround::21            1075      0.15%     99.97% # Writes before turning the bus around for reads
system.mem_ctrls0.wrPerTurnAround::22             169      0.02%    100.00% # Writes before turning the bus around for reads
system.mem_ctrls0.wrPerTurnAround::23              27      0.00%    100.00% # Writes before turning the bus around for reads
system.mem_ctrls0.wrPerTurnAround::24               5      0.00%    100.00% # Writes before turning the bus around for reads
system.mem_ctrls0.wrPerTurnAround::total       700883                       # Writes before turning the bus around for reads
system.mem_ctrls0.totQLat                429966081314                       # Total ticks spent queuing
system.mem_ctrls0.totMemAccLat           743316700064                       # Total ticks spent from burst creation until serviced by the DRAM
system.mem_ctrls0.totBusLat               83560165000                       # Total ticks spent in databus transfers
system.mem_ctrls0.avgQLat                    25727.93                       # Average queueing delay per DRAM burst
system.mem_ctrls0.avgBusLat                   5000.00                       # Average bus latency per DRAM burst
system.mem_ctrls0.avgMemAccLat               44477.93                       # Average memory access latency per DRAM burst
system.mem_ctrls0.avgRdBW                      259.05                       # Average DRAM read bandwidth in MiByte/s
system.mem_ctrls0.avgWrBW                      184.80                       # Average achieved write bandwidth in MiByte/s
system.mem_ctrls0.avgRdBWSys                   259.05                       # Average system read bandwidth in MiByte/s
system.mem_ctrls0.avgWrBWSys                   184.80                       # Average system write bandwidth in MiByte/s
system.mem_ctrls0.peakBW                     12800.00                       # Theoretical peak bandwidth in MiByte/s
system.mem_ctrls0.busUtil                        3.47                       # Data bus utilization in percentage
system.mem_ctrls0.busUtilRead                    2.02                       # Data bus utilization in percentage for reads
system.mem_ctrls0.busUtilWrite                   1.44                       # Data bus utilization in percentage for writes
system.mem_ctrls0.avgRdQLen                      1.03                       # Average read queue length when enqueuing
system.mem_ctrls0.avgWrQLen                     25.02                       # Average write queue length when enqueuing
system.mem_ctrls0.readRowHits                 7849140                       # Number of row buffer hits during reads
system.mem_ctrls0.writeRowHits                2223060                       # Number of row buffer hits during writes
system.mem_ctrls0.readRowHitRate                46.97                       # Row buffer hit rate for reads
system.mem_ctrls0.writeRowHitRate               18.65                       # Row buffer hit rate for writes
system.mem_ctrls0.avgGap                    144191.41                       # Average gap between requests
system.mem_ctrls0.pageHitRate                   35.18                       # Row buffer hit rate, read and write combined
system.mem_ctrls0_0.actEnergy             66307323600                       # Energy for activate commands per rank (pJ)
system.mem_ctrls0_0.preEnergy             35243159325                       # Energy for precharge commands per rank (pJ)
system.mem_ctrls0_0.readEnergy            59706093720                       # Energy for read commands per rank (pJ)
system.mem_ctrls0_0.writeEnergy           31147071840                       # Energy for write commands per rank (pJ)
system.mem_ctrls0_0.refreshEnergy        329924615280.000061                       # Energy for refresh commands per rank (pJ)
system.mem_ctrls0_0.actBackEnergy        499041722010                       # Energy for active background per rank (pJ)
system.mem_ctrls0_0.preBackEnergy          8780122560                       # Energy for precharge background per rank (pJ)
system.mem_ctrls0_0.actPowerDownEnergy   1119294930690                       # Energy for active power-down per rank (pJ)
system.mem_ctrls0_0.prePowerDownEnergy   203312840160                       # Energy for precharge power-down per rank (pJ)
system.mem_ctrls0_0.selfRefreshEnergy     12559538085                       # Energy for self refresh per rank (pJ)
system.mem_ctrls0_0.totalEnergy          2365403875380                       # Total energy per rank (pJ)
system.mem_ctrls0_0.averagePower           572.911917                       # Core power per rank (mW)
system.mem_ctrls0_0.totalIdleTime        3011295455873                       # Total Idle time Per DRAM Rank
system.mem_ctrls0_0.memoryStateTime::IDLE   6356216250                       # Time in different power states
system.mem_ctrls0_0.memoryStateTime::REF 139635316000                       # Time in different power states
system.mem_ctrls0_0.memoryStateTime::SREF  27237562825                       # Time in different power states
system.mem_ctrls0_0.memoryStateTime::PRE_PDN 529456239080                       # Time in different power states
system.mem_ctrls0_0.memoryStateTime::ACT 971452147203                       # Time in different power states
system.mem_ctrls0_0.memoryStateTime::ACT_PDN 2454601653968                       # Time in different power states
system.mem_ctrls0_1.actEnergy             66221914920                       # Energy for activate commands per rank (pJ)
system.mem_ctrls0_1.preEnergy             35197767330                       # Energy for precharge commands per rank (pJ)
system.mem_ctrls0_1.readEnergy            59617814760                       # Energy for read commands per rank (pJ)
system.mem_ctrls0_1.writeEnergy           31084129080                       # Energy for write commands per rank (pJ)
system.mem_ctrls0_1.refreshEnergy        330003903840.000061                       # Energy for refresh commands per rank (pJ)
system.mem_ctrls0_1.actBackEnergy        498818536800                       # Energy for active background per rank (pJ)
system.mem_ctrls0_1.preBackEnergy          8802902400                       # Energy for precharge background per rank (pJ)
system.mem_ctrls0_1.actPowerDownEnergy   1119079685580                       # Energy for active power-down per rank (pJ)
system.mem_ctrls0_1.prePowerDownEnergy   203653949760                       # Energy for precharge power-down per rank (pJ)
system.mem_ctrls0_1.selfRefreshEnergy     12640967775                       # Energy for self refresh per rank (pJ)
system.mem_ctrls0_1.totalEnergy          2365211530455                       # Total energy per rank (pJ)
system.mem_ctrls0_1.averagePower           572.865328                       # Core power per rank (mW)
system.mem_ctrls0_1.totalIdleTime        3011720300143                       # Total Idle time Per DRAM Rank
system.mem_ctrls0_1.memoryStateTime::IDLE   6417821409                       # Time in different power states
system.mem_ctrls0_1.memoryStateTime::REF 139670416000                       # Time in different power states
system.mem_ctrls0_1.memoryStateTime::SREF  27243576530                       # Time in different power states
system.mem_ctrls0_1.memoryStateTime::PRE_PDN 530350167813                       # Time in different power states
system.mem_ctrls0_1.memoryStateTime::ACT 970930597774                       # Time in different power states
system.mem_ctrls0_1.memoryStateTime::ACT_PDN 2454126555800                       # Time in different power states
system.mem_ctrls1.pwrStateResidencyTicks::UNDEFINED 24113840495193                       # Cumulative time (in ticks) in various power states
system.mem_ctrls1.bytes_read::cpu.inst            128                       # Number of bytes read from this memory
system.mem_ctrls1.bytes_read::cpu.data            128                       # Number of bytes read from this memory
system.mem_ctrls1.bytes_read::switch_cpus.inst          896                       # Number of bytes read from this memory
system.mem_ctrls1.bytes_read::switch_cpus.data    885703232                       # Number of bytes read from this memory
system.mem_ctrls1.bytes_read::switch_cpus_1.data    183797504                       # Number of bytes read from this memory
system.mem_ctrls1.bytes_read::total        1069501888                       # Number of bytes read from this memory
system.mem_ctrls1.bytes_inst_read::cpu.inst          128                       # Number of instructions bytes read from this memory
system.mem_ctrls1.bytes_inst_read::switch_cpus.inst          896                       # Number of instructions bytes read from this memory
system.mem_ctrls1.bytes_inst_read::total         1024                       # Number of instructions bytes read from this memory
system.mem_ctrls1.bytes_written::writebacks    762933696                       # Number of bytes written to this memory
system.mem_ctrls1.bytes_written::total      762933696                       # Number of bytes written to this memory
system.mem_ctrls1.num_reads::cpu.inst               2                       # Number of read requests responded to by this memory
system.mem_ctrls1.num_reads::cpu.data               2                       # Number of read requests responded to by this memory
system.mem_ctrls1.num_reads::switch_cpus.inst           14                       # Number of read requests responded to by this memory
system.mem_ctrls1.num_reads::switch_cpus.data     13839113                       # Number of read requests responded to by this memory
system.mem_ctrls1.num_reads::switch_cpus_1.data      2871836                       # Number of read requests responded to by this memory
system.mem_ctrls1.num_reads::total           16710967                       # Number of read requests responded to by this memory
system.mem_ctrls1.num_writes::writebacks     11920839                       # Number of write requests responded to by this memory
system.mem_ctrls1.num_writes::total          11920839                       # Number of write requests responded to by this memory
system.mem_ctrls1.bw_read::cpu.inst                31                       # Total read bandwidth from this memory (bytes/s)
system.mem_ctrls1.bw_read::cpu.data                31                       # Total read bandwidth from this memory (bytes/s)
system.mem_ctrls1.bw_read::switch_cpus.inst          217                       # Total read bandwidth from this memory (bytes/s)
system.mem_ctrls1.bw_read::switch_cpus.data    214521481                       # Total read bandwidth from this memory (bytes/s)
system.mem_ctrls1.bw_read::switch_cpus_1.data     44516618                       # Total read bandwidth from this memory (bytes/s)
system.mem_ctrls1.bw_read::total            259038378                       # Total read bandwidth from this memory (bytes/s)
system.mem_ctrls1.bw_inst_read::cpu.inst           31                       # Instruction read bandwidth from this memory (bytes/s)
system.mem_ctrls1.bw_inst_read::switch_cpus.inst          217                       # Instruction read bandwidth from this memory (bytes/s)
system.mem_ctrls1.bw_inst_read::total             248                       # Instruction read bandwidth from this memory (bytes/s)
system.mem_ctrls1.bw_write::writebacks      184786123                       # Write bandwidth from this memory (bytes/s)
system.mem_ctrls1.bw_write::total           184786123                       # Write bandwidth from this memory (bytes/s)
system.mem_ctrls1.bw_total::writebacks      184786123                       # Total bandwidth to/from this memory (bytes/s)
system.mem_ctrls1.bw_total::cpu.inst               31                       # Total bandwidth to/from this memory (bytes/s)
system.mem_ctrls1.bw_total::cpu.data               31                       # Total bandwidth to/from this memory (bytes/s)
system.mem_ctrls1.bw_total::switch_cpus.inst          217                       # Total bandwidth to/from this memory (bytes/s)
system.mem_ctrls1.bw_total::switch_cpus.data    214521481                       # Total bandwidth to/from this memory (bytes/s)
system.mem_ctrls1.bw_total::switch_cpus_1.data     44516618                       # Total bandwidth to/from this memory (bytes/s)
system.mem_ctrls1.bw_total::total           443824500                       # Total bandwidth to/from this memory (bytes/s)
system.mem_ctrls1.readReqs                   16710967                       # Number of read requests accepted
system.mem_ctrls1.writeReqs                  11920839                       # Number of write requests accepted
system.mem_ctrls1.readBursts                 16710967                       # Number of DRAM read bursts, including those serviced by the write queue
system.mem_ctrls1.writeBursts                11920839                       # Number of DRAM write bursts, including those merged in the write queue
system.mem_ctrls1.bytesReadDRAM            1069501888                       # Total number of bytes read from DRAM
system.mem_ctrls1.bytesReadWrQ                      0                       # Total number of bytes read from write queue
system.mem_ctrls1.bytesWritten              762931776                       # Total number of bytes written to DRAM
system.mem_ctrls1.bytesReadSys             1069501888                       # Total read bytes from the system interface side
system.mem_ctrls1.bytesWrittenSys           762933696                       # Total written bytes from the system interface side
system.mem_ctrls1.servicedByWrQ                     0                       # Number of DRAM read bursts serviced by the write queue
system.mem_ctrls1.mergedWrBursts                    0                       # Number of DRAM write bursts merged with an existing one
system.mem_ctrls1.neitherReadNorWriteReqs            0                       # Number of requests that are neither read nor write
system.mem_ctrls1.perBankRdBursts::0          1043880                       # Per bank write bursts
system.mem_ctrls1.perBankRdBursts::1          1044875                       # Per bank write bursts
system.mem_ctrls1.perBankRdBursts::2          1044715                       # Per bank write bursts
system.mem_ctrls1.perBankRdBursts::3          1045053                       # Per bank write bursts
system.mem_ctrls1.perBankRdBursts::4          1044987                       # Per bank write bursts
system.mem_ctrls1.perBankRdBursts::5          1045719                       # Per bank write bursts
system.mem_ctrls1.perBankRdBursts::6          1046542                       # Per bank write bursts
system.mem_ctrls1.perBankRdBursts::7          1046043                       # Per bank write bursts
system.mem_ctrls1.perBankRdBursts::8          1044956                       # Per bank write bursts
system.mem_ctrls1.perBankRdBursts::9          1044908                       # Per bank write bursts
system.mem_ctrls1.perBankRdBursts::10         1042502                       # Per bank write bursts
system.mem_ctrls1.perBankRdBursts::11         1043534                       # Per bank write bursts
system.mem_ctrls1.perBankRdBursts::12         1044436                       # Per bank write bursts
system.mem_ctrls1.perBankRdBursts::13         1042996                       # Per bank write bursts
system.mem_ctrls1.perBankRdBursts::14         1043135                       # Per bank write bursts
system.mem_ctrls1.perBankRdBursts::15         1042686                       # Per bank write bursts
system.mem_ctrls1.perBankWrBursts::0           744795                       # Per bank write bursts
system.mem_ctrls1.perBankWrBursts::1           745753                       # Per bank write bursts
system.mem_ctrls1.perBankWrBursts::2           745514                       # Per bank write bursts
system.mem_ctrls1.perBankWrBursts::3           745635                       # Per bank write bursts
system.mem_ctrls1.perBankWrBursts::4           745493                       # Per bank write bursts
system.mem_ctrls1.perBankWrBursts::5           746087                       # Per bank write bursts
system.mem_ctrls1.perBankWrBursts::6           746878                       # Per bank write bursts
system.mem_ctrls1.perBankWrBursts::7           746353                       # Per bank write bursts
system.mem_ctrls1.perBankWrBursts::8           745217                       # Per bank write bursts
system.mem_ctrls1.perBankWrBursts::9           745163                       # Per bank write bursts
system.mem_ctrls1.perBankWrBursts::10          743002                       # Per bank write bursts
system.mem_ctrls1.perBankWrBursts::11          744131                       # Per bank write bursts
system.mem_ctrls1.perBankWrBursts::12          745098                       # Per bank write bursts
system.mem_ctrls1.perBankWrBursts::13          743941                       # Per bank write bursts
system.mem_ctrls1.perBankWrBursts::14          744115                       # Per bank write bursts
system.mem_ctrls1.perBankWrBursts::15          743634                       # Per bank write bursts
system.mem_ctrls1.numRdRetry                        0                       # Number of times read queue was full causing retry
system.mem_ctrls1.numWrRetry                        0                       # Number of times write queue was full causing retry
system.mem_ctrls1.totGap                 4128739108020                       # Total gap between requests
system.mem_ctrls1.readPktSize::0                    0                       # Read request sizes (log2)
system.mem_ctrls1.readPktSize::1                    0                       # Read request sizes (log2)
system.mem_ctrls1.readPktSize::2                    0                       # Read request sizes (log2)
system.mem_ctrls1.readPktSize::3                    0                       # Read request sizes (log2)
system.mem_ctrls1.readPktSize::4                    0                       # Read request sizes (log2)
system.mem_ctrls1.readPktSize::5                    0                       # Read request sizes (log2)
system.mem_ctrls1.readPktSize::6             16710967                       # Read request sizes (log2)
system.mem_ctrls1.writePktSize::0                   0                       # Write request sizes (log2)
system.mem_ctrls1.writePktSize::1                   0                       # Write request sizes (log2)
system.mem_ctrls1.writePktSize::2                   0                       # Write request sizes (log2)
system.mem_ctrls1.writePktSize::3                   0                       # Write request sizes (log2)
system.mem_ctrls1.writePktSize::4                   0                       # Write request sizes (log2)
system.mem_ctrls1.writePktSize::5                   0                       # Write request sizes (log2)
system.mem_ctrls1.writePktSize::6            11920839                       # Write request sizes (log2)
system.mem_ctrls1.rdQLenPdf::0               15492555                       # What read queue length does an incoming req see
system.mem_ctrls1.rdQLenPdf::1                 925638                       # What read queue length does an incoming req see
system.mem_ctrls1.rdQLenPdf::2                 268938                       # What read queue length does an incoming req see
system.mem_ctrls1.rdQLenPdf::3                  23836                       # What read queue length does an incoming req see
system.mem_ctrls1.rdQLenPdf::4                      0                       # What read queue length does an incoming req see
system.mem_ctrls1.rdQLenPdf::5                      0                       # What read queue length does an incoming req see
system.mem_ctrls1.rdQLenPdf::6                      0                       # What read queue length does an incoming req see
system.mem_ctrls1.rdQLenPdf::7                      0                       # What read queue length does an incoming req see
system.mem_ctrls1.rdQLenPdf::8                      0                       # What read queue length does an incoming req see
system.mem_ctrls1.rdQLenPdf::9                      0                       # What read queue length does an incoming req see
system.mem_ctrls1.rdQLenPdf::10                     0                       # What read queue length does an incoming req see
system.mem_ctrls1.rdQLenPdf::11                     0                       # What read queue length does an incoming req see
system.mem_ctrls1.rdQLenPdf::12                     0                       # What read queue length does an incoming req see
system.mem_ctrls1.rdQLenPdf::13                     0                       # What read queue length does an incoming req see
system.mem_ctrls1.rdQLenPdf::14                     0                       # What read queue length does an incoming req see
system.mem_ctrls1.rdQLenPdf::15                     0                       # What read queue length does an incoming req see
system.mem_ctrls1.rdQLenPdf::16                     0                       # What read queue length does an incoming req see
system.mem_ctrls1.rdQLenPdf::17                     0                       # What read queue length does an incoming req see
system.mem_ctrls1.rdQLenPdf::18                     0                       # What read queue length does an incoming req see
system.mem_ctrls1.rdQLenPdf::19                     0                       # What read queue length does an incoming req see
system.mem_ctrls1.rdQLenPdf::20                     0                       # What read queue length does an incoming req see
system.mem_ctrls1.rdQLenPdf::21                     0                       # What read queue length does an incoming req see
system.mem_ctrls1.rdQLenPdf::22                     0                       # What read queue length does an incoming req see
system.mem_ctrls1.rdQLenPdf::23                     0                       # What read queue length does an incoming req see
system.mem_ctrls1.rdQLenPdf::24                     0                       # What read queue length does an incoming req see
system.mem_ctrls1.rdQLenPdf::25                     0                       # What read queue length does an incoming req see
system.mem_ctrls1.rdQLenPdf::26                     0                       # What read queue length does an incoming req see
system.mem_ctrls1.rdQLenPdf::27                     0                       # What read queue length does an incoming req see
system.mem_ctrls1.rdQLenPdf::28                     0                       # What read queue length does an incoming req see
system.mem_ctrls1.rdQLenPdf::29                     0                       # What read queue length does an incoming req see
system.mem_ctrls1.rdQLenPdf::30                     0                       # What read queue length does an incoming req see
system.mem_ctrls1.rdQLenPdf::31                     0                       # What read queue length does an incoming req see
system.mem_ctrls1.wrQLenPdf::0                      2                       # What write queue length does an incoming req see
system.mem_ctrls1.wrQLenPdf::1                      2                       # What write queue length does an incoming req see
system.mem_ctrls1.wrQLenPdf::2                      2                       # What write queue length does an incoming req see
system.mem_ctrls1.wrQLenPdf::3                      2                       # What write queue length does an incoming req see
system.mem_ctrls1.wrQLenPdf::4                      2                       # What write queue length does an incoming req see
system.mem_ctrls1.wrQLenPdf::5                      2                       # What write queue length does an incoming req see
system.mem_ctrls1.wrQLenPdf::6                      2                       # What write queue length does an incoming req see
system.mem_ctrls1.wrQLenPdf::7                      2                       # What write queue length does an incoming req see
system.mem_ctrls1.wrQLenPdf::8                      2                       # What write queue length does an incoming req see
system.mem_ctrls1.wrQLenPdf::9                      2                       # What write queue length does an incoming req see
system.mem_ctrls1.wrQLenPdf::10                     2                       # What write queue length does an incoming req see
system.mem_ctrls1.wrQLenPdf::11                     2                       # What write queue length does an incoming req see
system.mem_ctrls1.wrQLenPdf::12                     2                       # What write queue length does an incoming req see
system.mem_ctrls1.wrQLenPdf::13                     2                       # What write queue length does an incoming req see
system.mem_ctrls1.wrQLenPdf::14                     2                       # What write queue length does an incoming req see
system.mem_ctrls1.wrQLenPdf::15                306219                       # What write queue length does an incoming req see
system.mem_ctrls1.wrQLenPdf::16                327071                       # What write queue length does an incoming req see
system.mem_ctrls1.wrQLenPdf::17                616134                       # What write queue length does an incoming req see
system.mem_ctrls1.wrQLenPdf::18                688788                       # What write queue length does an incoming req see
system.mem_ctrls1.wrQLenPdf::19                708813                       # What write queue length does an incoming req see
system.mem_ctrls1.wrQLenPdf::20                712103                       # What write queue length does an incoming req see
system.mem_ctrls1.wrQLenPdf::21                711826                       # What write queue length does an incoming req see
system.mem_ctrls1.wrQLenPdf::22                710884                       # What write queue length does an incoming req see
system.mem_ctrls1.wrQLenPdf::23                710255                       # What write queue length does an incoming req see
system.mem_ctrls1.wrQLenPdf::24                709889                       # What write queue length does an incoming req see
system.mem_ctrls1.wrQLenPdf::25                710500                       # What write queue length does an incoming req see
system.mem_ctrls1.wrQLenPdf::26                710976                       # What write queue length does an incoming req see
system.mem_ctrls1.wrQLenPdf::27                722210                       # What write queue length does an incoming req see
system.mem_ctrls1.wrQLenPdf::28                722725                       # What write queue length does an incoming req see
system.mem_ctrls1.wrQLenPdf::29                724399                       # What write queue length does an incoming req see
system.mem_ctrls1.wrQLenPdf::30                721522                       # What write queue length does an incoming req see
system.mem_ctrls1.wrQLenPdf::31                702363                       # What write queue length does an incoming req see
system.mem_ctrls1.wrQLenPdf::32                701573                       # What write queue length does an incoming req see
system.mem_ctrls1.wrQLenPdf::33                  1777                       # What write queue length does an incoming req see
system.mem_ctrls1.wrQLenPdf::34                   535                       # What write queue length does an incoming req see
system.mem_ctrls1.wrQLenPdf::35                   175                       # What write queue length does an incoming req see
system.mem_ctrls1.wrQLenPdf::36                    55                       # What write queue length does an incoming req see
system.mem_ctrls1.wrQLenPdf::37                    12                       # What write queue length does an incoming req see
system.mem_ctrls1.wrQLenPdf::38                     4                       # What write queue length does an incoming req see
system.mem_ctrls1.wrQLenPdf::39                     1                       # What write queue length does an incoming req see
system.mem_ctrls1.wrQLenPdf::40                     0                       # What write queue length does an incoming req see
system.mem_ctrls1.wrQLenPdf::41                     0                       # What write queue length does an incoming req see
system.mem_ctrls1.wrQLenPdf::42                     0                       # What write queue length does an incoming req see
system.mem_ctrls1.wrQLenPdf::43                     0                       # What write queue length does an incoming req see
system.mem_ctrls1.wrQLenPdf::44                     0                       # What write queue length does an incoming req see
system.mem_ctrls1.wrQLenPdf::45                     0                       # What write queue length does an incoming req see
system.mem_ctrls1.wrQLenPdf::46                     0                       # What write queue length does an incoming req see
system.mem_ctrls1.wrQLenPdf::47                     0                       # What write queue length does an incoming req see
system.mem_ctrls1.wrQLenPdf::48                     0                       # What write queue length does an incoming req see
system.mem_ctrls1.wrQLenPdf::49                     0                       # What write queue length does an incoming req see
system.mem_ctrls1.wrQLenPdf::50                     0                       # What write queue length does an incoming req see
system.mem_ctrls1.wrQLenPdf::51                     0                       # What write queue length does an incoming req see
system.mem_ctrls1.wrQLenPdf::52                     0                       # What write queue length does an incoming req see
system.mem_ctrls1.wrQLenPdf::53                     0                       # What write queue length does an incoming req see
system.mem_ctrls1.wrQLenPdf::54                     0                       # What write queue length does an incoming req see
system.mem_ctrls1.wrQLenPdf::55                     0                       # What write queue length does an incoming req see
system.mem_ctrls1.wrQLenPdf::56                     0                       # What write queue length does an incoming req see
system.mem_ctrls1.wrQLenPdf::57                     0                       # What write queue length does an incoming req see
system.mem_ctrls1.wrQLenPdf::58                     0                       # What write queue length does an incoming req see
system.mem_ctrls1.wrQLenPdf::59                     0                       # What write queue length does an incoming req see
system.mem_ctrls1.wrQLenPdf::60                     0                       # What write queue length does an incoming req see
system.mem_ctrls1.wrQLenPdf::61                     0                       # What write queue length does an incoming req see
system.mem_ctrls1.wrQLenPdf::62                     0                       # What write queue length does an incoming req see
system.mem_ctrls1.wrQLenPdf::63                     0                       # What write queue length does an incoming req see
system.mem_ctrls1.bytesPerActivate::samples     18557492                       # Bytes accessed per row activation
system.mem_ctrls1.bytesPerActivate::mean    98.743529                       # Bytes accessed per row activation
system.mem_ctrls1.bytesPerActivate::gmean    86.772018                       # Bytes accessed per row activation
system.mem_ctrls1.bytesPerActivate::stdev    61.874702                       # Bytes accessed per row activation
system.mem_ctrls1.bytesPerActivate::0-127     12328520     66.43%     66.43% # Bytes accessed per row activation
system.mem_ctrls1.bytesPerActivate::128-255      5322365     28.68%     95.11% # Bytes accessed per row activation
system.mem_ctrls1.bytesPerActivate::256-383       767696      4.14%     99.25% # Bytes accessed per row activation
system.mem_ctrls1.bytesPerActivate::384-511       115584      0.62%     99.87% # Bytes accessed per row activation
system.mem_ctrls1.bytesPerActivate::512-639        16642      0.09%     99.96% # Bytes accessed per row activation
system.mem_ctrls1.bytesPerActivate::640-767         4364      0.02%     99.99% # Bytes accessed per row activation
system.mem_ctrls1.bytesPerActivate::768-895         1787      0.01%    100.00% # Bytes accessed per row activation
system.mem_ctrls1.bytesPerActivate::896-1023          360      0.00%    100.00% # Bytes accessed per row activation
system.mem_ctrls1.bytesPerActivate::1024-1151          174      0.00%    100.00% # Bytes accessed per row activation
system.mem_ctrls1.bytesPerActivate::total     18557492                       # Bytes accessed per row activation
system.mem_ctrls1.rdPerTurnAround::samples       700919                       # Reads before turning the bus around for writes
system.mem_ctrls1.rdPerTurnAround::mean     23.841465                       # Reads before turning the bus around for writes
system.mem_ctrls1.rdPerTurnAround::gmean    23.225556                       # Reads before turning the bus around for writes
system.mem_ctrls1.rdPerTurnAround::stdev    39.620154                       # Reads before turning the bus around for writes
system.mem_ctrls1.rdPerTurnAround::0-2047       700918    100.00%    100.00% # Reads before turning the bus around for writes
system.mem_ctrls1.rdPerTurnAround::32768-34815            1      0.00%    100.00% # Reads before turning the bus around for writes
system.mem_ctrls1.rdPerTurnAround::total       700919                       # Reads before turning the bus around for writes
system.mem_ctrls1.wrPerTurnAround::samples       700919                       # Writes before turning the bus around for reads
system.mem_ctrls1.wrPerTurnAround::mean     17.007399                       # Writes before turning the bus around for reads
system.mem_ctrls1.wrPerTurnAround::gmean    16.969587                       # Writes before turning the bus around for reads
system.mem_ctrls1.wrPerTurnAround::stdev     1.145976                       # Writes before turning the bus around for reads
system.mem_ctrls1.wrPerTurnAround::16          376321     53.69%     53.69% # Writes before turning the bus around for reads
system.mem_ctrls1.wrPerTurnAround::17           12302      1.76%     55.44% # Writes before turning the bus around for reads
system.mem_ctrls1.wrPerTurnAround::18          253570     36.18%     91.62% # Writes before turning the bus around for reads
system.mem_ctrls1.wrPerTurnAround::19           49640      7.08%     98.70% # Writes before turning the bus around for reads
system.mem_ctrls1.wrPerTurnAround::20            7895      1.13%     99.83% # Writes before turning the bus around for reads
system.mem_ctrls1.wrPerTurnAround::21            1022      0.15%     99.98% # Writes before turning the bus around for reads
system.mem_ctrls1.wrPerTurnAround::22             137      0.02%    100.00% # Writes before turning the bus around for reads
system.mem_ctrls1.wrPerTurnAround::23              25      0.00%    100.00% # Writes before turning the bus around for reads
system.mem_ctrls1.wrPerTurnAround::24               7      0.00%    100.00% # Writes before turning the bus around for reads
system.mem_ctrls1.wrPerTurnAround::total       700919                       # Writes before turning the bus around for reads
system.mem_ctrls1.totQLat                428889593580                       # Total ticks spent queuing
system.mem_ctrls1.totMemAccLat           742220224830                       # Total ticks spent from burst creation until serviced by the DRAM
system.mem_ctrls1.totBusLat               83554835000                       # Total ticks spent in databus transfers
system.mem_ctrls1.avgQLat                    25665.16                       # Average queueing delay per DRAM burst
system.mem_ctrls1.avgBusLat                   5000.00                       # Average bus latency per DRAM burst
system.mem_ctrls1.avgMemAccLat               44415.16                       # Average memory access latency per DRAM burst
system.mem_ctrls1.avgRdBW                      259.04                       # Average DRAM read bandwidth in MiByte/s
system.mem_ctrls1.avgWrBW                      184.79                       # Average achieved write bandwidth in MiByte/s
system.mem_ctrls1.avgRdBWSys                   259.04                       # Average system read bandwidth in MiByte/s
system.mem_ctrls1.avgWrBWSys                   184.79                       # Average system write bandwidth in MiByte/s
system.mem_ctrls1.peakBW                     12800.00                       # Theoretical peak bandwidth in MiByte/s
system.mem_ctrls1.busUtil                        3.47                       # Data bus utilization in percentage
system.mem_ctrls1.busUtilRead                    2.02                       # Data bus utilization in percentage for reads
system.mem_ctrls1.busUtilWrite                   1.44                       # Data bus utilization in percentage for writes
system.mem_ctrls1.avgRdQLen                      1.03                       # Average read queue length when enqueuing
system.mem_ctrls1.avgWrQLen                     25.02                       # Average write queue length when enqueuing
system.mem_ctrls1.readRowHits                 7849660                       # Number of row buffer hits during reads
system.mem_ctrls1.writeRowHits                2224616                       # Number of row buffer hits during writes
system.mem_ctrls1.readRowHitRate                46.97                       # Row buffer hit rate for reads
system.mem_ctrls1.writeRowHitRate               18.66                       # Row buffer hit rate for writes
system.mem_ctrls1.avgGap                    144201.14                       # Average gap between requests
system.mem_ctrls1.pageHitRate                   35.19                       # Row buffer hit rate, read and write combined
system.mem_ctrls1_0.actEnergy             66284825460                       # Energy for activate commands per rank (pJ)
system.mem_ctrls1_0.preEnergy             35231216460                       # Energy for precharge commands per rank (pJ)
system.mem_ctrls1_0.readEnergy            59703351960                       # Energy for read commands per rank (pJ)
system.mem_ctrls1_0.writeEnergy           31145171760                       # Energy for write commands per rank (pJ)
system.mem_ctrls1_0.refreshEnergy        329946742320.000061                       # Energy for refresh commands per rank (pJ)
system.mem_ctrls1_0.actBackEnergy        497704960290                       # Energy for active background per rank (pJ)
system.mem_ctrls1_0.preBackEnergy          8746798080                       # Energy for precharge background per rank (pJ)
system.mem_ctrls1_0.actPowerDownEnergy   1119008624250                       # Energy for active power-down per rank (pJ)
system.mem_ctrls1_0.prePowerDownEnergy   204714452640                       # Energy for precharge power-down per rank (pJ)
system.mem_ctrls1_0.selfRefreshEnergy     12579510945                       # Energy for self refresh per rank (pJ)
system.mem_ctrls1_0.totalEnergy          2365155126885                       # Total energy per rank (pJ)
system.mem_ctrls1_0.averagePower           572.851665                       # Core power per rank (mW)
system.mem_ctrls1_0.totalIdleTime        3014307192558                       # Total Idle time Per DRAM Rank
system.mem_ctrls1_0.memoryStateTime::IDLE   6268667368                       # Time in different power states
system.mem_ctrls1_0.memoryStateTime::REF 139644898000                       # Time in different power states
system.mem_ctrls1_0.memoryStateTime::SREF  27227038233                       # Time in different power states
system.mem_ctrls1_0.memoryStateTime::PRE_PDN 533108086336                       # Time in different power states
system.mem_ctrls1_0.memoryStateTime::ACT 968518377400                       # Time in different power states
system.mem_ctrls1_0.memoryStateTime::ACT_PDN 2453972067989                       # Time in different power states
system.mem_ctrls1_1.actEnergy             66215724540                       # Energy for activate commands per rank (pJ)
system.mem_ctrls1_1.preEnergy             35194465680                       # Energy for precharge commands per rank (pJ)
system.mem_ctrls1_1.readEnergy            59612952420                       # Energy for read commands per rank (pJ)
system.mem_ctrls1_1.writeEnergy           31081451220                       # Energy for write commands per rank (pJ)
system.mem_ctrls1_1.refreshEnergy        329943054480.000061                       # Energy for refresh commands per rank (pJ)
system.mem_ctrls1_1.actBackEnergy        498882082110                       # Energy for active background per rank (pJ)
system.mem_ctrls1_1.preBackEnergy          8761064640                       # Energy for precharge background per rank (pJ)
system.mem_ctrls1_1.actPowerDownEnergy   1118638428630                       # Energy for active power-down per rank (pJ)
system.mem_ctrls1_1.prePowerDownEnergy   203835545280                       # Energy for precharge power-down per rank (pJ)
system.mem_ctrls1_1.selfRefreshEnergy     12728493570                       # Energy for self refresh per rank (pJ)
system.mem_ctrls1_1.totalEnergy          2364982299600                       # Total energy per rank (pJ)
system.mem_ctrls1_1.averagePower           572.809806                       # Core power per rank (mW)
system.mem_ctrls1_1.totalIdleTime        3011688402238                       # Total Idle time Per DRAM Rank
system.mem_ctrls1_1.memoryStateTime::IDLE   6325450311                       # Time in different power states
system.mem_ctrls1_1.memoryStateTime::REF 139643554000                       # Time in different power states
system.mem_ctrls1_1.memoryStateTime::SREF  27709933796                       # Time in different power states
system.mem_ctrls1_1.memoryStateTime::PRE_PDN 530819529198                       # Time in different power states
system.mem_ctrls1_1.memoryStateTime::ACT 971081670610                       # Time in different power states
system.mem_ctrls1_1.memoryStateTime::ACT_PDN 2453158997411                       # Time in different power states
system.pwrStateResidencyTicks::UNDEFINED 24113840495193                       # Cumulative time (in ticks) in various power states
system.cpu.branchPred.lookups                       0                       # Number of BP lookups
system.cpu.branchPred.condPredicted                 0                       # Number of conditional branches predicted
system.cpu.branchPred.condIncorrect                 0                       # Number of conditional branches incorrect
system.cpu.branchPred.BTBLookups                    0                       # Number of BTB lookups
system.cpu.branchPred.BTBHits                       0                       # Number of BTB hits
system.cpu.branchPred.BTBCorrect                    0                       # Number of correct BTB predictions (this stat may not work properly.
system.cpu.branchPred.BTBHitPct                   nan                       # BTB Hit Percentage
system.cpu.branchPred.usedRAS                       0                       # Number of times the RAS was used to get a target.
system.cpu.branchPred.RASInCorrect                  0                       # Number of incorrect RAS predictions.
system.cpu.branchPred.indirectLookups               0                       # Number of indirect predictor lookups.
system.cpu.branchPred.indirectHits                  0                       # Number of indirect target hits.
system.cpu.branchPred.indirectMisses                0                       # Number of indirect misses.
system.cpu.branchPredindirectMispredicted            0                       # Number of mispredicted indirect branches.
system.cpu_voltage_domain.voltage                   1                       # Voltage in Volts
system.cpu_clk_domain.clock                       333                       # Clock period in ticks
system.cpu.dtb.fetch_hits                           0                       # ITB hits
system.cpu.dtb.fetch_misses                         0                       # ITB misses
system.cpu.dtb.fetch_acv                            0                       # ITB acv
system.cpu.dtb.fetch_accesses                       0                       # ITB accesses
system.cpu.dtb.read_hits                           14                       # DTB read hits
system.cpu.dtb.read_misses                          0                       # DTB read misses
system.cpu.dtb.read_acv                             0                       # DTB read access violations
system.cpu.dtb.read_accesses                       14                       # DTB read accesses
system.cpu.dtb.write_hits                           1                       # DTB write hits
system.cpu.dtb.write_misses                         0                       # DTB write misses
system.cpu.dtb.write_acv                            0                       # DTB write access violations
system.cpu.dtb.write_accesses                       1                       # DTB write accesses
system.cpu.dtb.data_hits                           15                       # DTB hits
system.cpu.dtb.data_misses                          0                       # DTB misses
system.cpu.dtb.data_acv                             0                       # DTB access violations
system.cpu.dtb.data_accesses                       15                       # DTB accesses
system.cpu.itb.fetch_hits                           4                       # ITB hits
system.cpu.itb.fetch_misses                         0                       # ITB misses
system.cpu.itb.fetch_acv                            0                       # ITB acv
system.cpu.itb.fetch_accesses                       4                       # ITB accesses
system.cpu.itb.read_hits                            0                       # DTB read hits
system.cpu.itb.read_misses                          0                       # DTB read misses
system.cpu.itb.read_acv                             0                       # DTB read access violations
system.cpu.itb.read_accesses                        0                       # DTB read accesses
system.cpu.itb.write_hits                           0                       # DTB write hits
system.cpu.itb.write_misses                         0                       # DTB write misses
system.cpu.itb.write_acv                            0                       # DTB write access violations
system.cpu.itb.write_accesses                       0                       # DTB write accesses
system.cpu.itb.data_hits                            0                       # DTB hits
system.cpu.itb.data_misses                          0                       # DTB misses
system.cpu.itb.data_acv                             0                       # DTB access violations
system.cpu.itb.data_accesses                        0                       # DTB accesses
system.cpu.workload.num_syscalls                    0                       # Number of system calls
system.cpu.pwrStateResidencyTicks::ON    4128739135326                       # Cumulative time (in ticks) in various power states
system.cpu.numCycles                              583                       # number of cpu cycles simulated
system.cpu.numWorkItemsStarted                      0                       # number of work items this cpu started
system.cpu.numWorkItemsCompleted                    0                       # number of work items this cpu completed
system.cpu.fetch.icacheStallCycles                 63                       # Number of cycles fetch is stalled on an Icache miss
system.cpu.fetch.Insts                             29                       # Number of instructions fetch has processed
system.cpu.fetch.Cycles                             4                       # Number of cycles fetch has run and was not squashing or blocked
system.cpu.fetch.SquashCycles                       3                       # Number of cycles fetch has spent squashing
system.cpu.fetch.PendingDrainCycles                 8                       # Number of cycles fetch has spent waiting on pipes to drain
system.cpu.fetch.CacheLines                         4                       # Number of cache lines fetched
system.cpu.fetch.IcacheSquashes                     2                       # Number of outstanding Icache misses that were squashed
system.cpu.fetch.rateDist::samples                 76                       # Number of instructions fetched each cycle (Total)
system.cpu.fetch.rateDist::mean              0.381579                       # Number of instructions fetched each cycle (Total)
system.cpu.fetch.rateDist::stdev             1.657042                       # Number of instructions fetched each cycle (Total)
system.cpu.fetch.rateDist::underflows               0      0.00%      0.00% # Number of instructions fetched each cycle (Total)
system.cpu.fetch.rateDist::0                       72     94.74%     94.74% # Number of instructions fetched each cycle (Total)
system.cpu.fetch.rateDist::1                        0      0.00%     94.74% # Number of instructions fetched each cycle (Total)
system.cpu.fetch.rateDist::2                        0      0.00%     94.74% # Number of instructions fetched each cycle (Total)
system.cpu.fetch.rateDist::3                        0      0.00%     94.74% # Number of instructions fetched each cycle (Total)
system.cpu.fetch.rateDist::4                        0      0.00%     94.74% # Number of instructions fetched each cycle (Total)
system.cpu.fetch.rateDist::5                        1      1.32%     96.05% # Number of instructions fetched each cycle (Total)
system.cpu.fetch.rateDist::6                        0      0.00%     96.05% # Number of instructions fetched each cycle (Total)
system.cpu.fetch.rateDist::7                        0      0.00%     96.05% # Number of instructions fetched each cycle (Total)
system.cpu.fetch.rateDist::8                        3      3.95%    100.00% # Number of instructions fetched each cycle (Total)
system.cpu.fetch.rateDist::overflows                0      0.00%    100.00% # Number of instructions fetched each cycle (Total)
system.cpu.fetch.rateDist::min_value                0                       # Number of instructions fetched each cycle (Total)
system.cpu.fetch.rateDist::max_value                8                       # Number of instructions fetched each cycle (Total)
system.cpu.fetch.rateDist::total                   76                       # Number of instructions fetched each cycle (Total)
system.cpu.fetch.branchRate                         0                       # Number of branch fetches per cycle
system.cpu.fetch.rate                        0.049743                       # Number of inst fetches per cycle
system.cpu.decode.IdleCycles                       67                       # Number of cycles decode is idle
system.cpu.decode.BlockedCycles                     3                       # Number of cycles decode is blocked
[...]
system.switch_cpus_1.iq.FU_type_0::IprAccess            0      0.00%    100.00% # Type of FU issued
system.switch_cpus_1.iq.FU_type_0::InstPrefetch            0      0.00%    100.00% # Type of FU issued
system.switch_cpus_1.iq.FU_type_0::total    325660003                       # Type of FU issued
system.switch_cpus_1.iq.rate                 0.557139                       # Inst issue rate
system.switch_cpus_1.iq.fu_busy_cnt          58345401                       # FU busy when requested
system.switch_cpus_1.iq.fu_busy_rate         0.179160                       # FU busy rate (busy events/executed inst)
system.switch_cpus_1.iq.int_inst_queue_reads    637009698                       # Number of integer instruction queue reads
system.switch_cpus_1.iq.int_inst_queue_writes     23717368                       # Number of integer instruction queue writes
system.switch_cpus_1.iq.int_inst_queue_wakeup_accesses     22423499                       # Number of integer instruction queue wakeup accesses
system.switch_cpus_1.iq.fp_inst_queue_reads    657231871                       # Number of floating instruction queue reads
system.switch_cpus_1.iq.fp_inst_queue_writes    190219098                       # Number of floating instruction queue writes
system.switch_cpus_1.iq.fp_inst_queue_wakeup_accesses    182351586                       # Number of floating instruction queue wakeup accesses
system.switch_cpus_1.iq.int_alu_accesses     27304027                       # Number of integer alu accesses
system.switch_cpus_1.iq.fp_alu_accesses     356701377                       # Number of floating point alu accesses
system.switch_cpus_1.iew.lsq.thread0.forwLoads      8679679                       # Number of loads that had data forwarded from stores
system.switch_cpus_1.iew.lsq.thread0.invAddrLoads            0                       # Number of loads ignored due to an invalid address
system.switch_cpus_1.iew.lsq.thread0.squashedLoads      1749520                       # Number of loads squashed
system.switch_cpus_1.iew.lsq.thread0.ignoredResponses           29                       # Number of memory responses ignored because the instruction is squashed
system.switch_cpus_1.iew.lsq.thread0.memOrderViolation         1288                       # Number of memory ordering violations
system.switch_cpus_1.iew.lsq.thread0.squashedStores       650379                       # Number of stores squashed
system.switch_cpus_1.iew.lsq.thread0.invAddrSwpfs            0                       # Number of software prefetches ignored due to an invalid address
system.switch_cpus_1.iew.lsq.thread0.blockedLoads            0                       # Number of blocked loads due to partial load-store forwarding
system.switch_cpus_1.iew.lsq.thread0.rescheduledLoads            0                       # Number of loads that were rescheduled
system.switch_cpus_1.iew.lsq.thread0.cacheBlocked    128476613                       # Number of times an access to memory failed due to the cache being blocked
system.switch_cpus_1.iew.iewIdleCycles              0                       # Number of cycles IEW is idle
system.switch_cpus_1.iew.iewSquashCycles        62297                       # Number of cycles IEW is squashing
system.switch_cpus_1.iew.iewBlockCycles     398916542                       # Number of cycles IEW is blocking
system.switch_cpus_1.iew.iewUnblockCycles     24943755                       # Number of cycles IEW is unblocking
system.switch_cpus_1.iew.iewDispatchedInsts    206967633                       # Number of instructions dispatched to IQ
system.switch_cpus_1.iew.iewDispSquashedInsts           69                       # Number of squashed instructions skipped by dispatch
system.switch_cpus_1.iew.iewDispLoadInsts     38694108                       # Number of dispatched load instructions
system.switch_cpus_1.iew.iewDispStoreInsts     18512383                       # Number of dispatched store instructions
system.switch_cpus_1.iew.iewDispNonSpecInsts            0                       # Number of dispatched non-speculative instructions
system.switch_cpus_1.iew.iewIQFullEvents      1709045                       # Number of times the IQ has become full, causing a stall
system.switch_cpus_1.iew.iewLSQFullEvents     21638042                       # Number of times the LSQ has become full, causing a stall
system.switch_cpus_1.iew.memOrderViolationEvents         1288                       # Number of memory order violations
system.switch_cpus_1.iew.predictedTakenIncorrect         1293                       # Number of branches that were predicted taken incorrectly
system.switch_cpus_1.iew.predictedNotTakenIncorrect         8908                       # Number of branches that were predicted not taken incorrectly
system.switch_cpus_1.iew.branchMispredicts        10201                       # Number of branch mispredicts detected at execute
system.switch_cpus_1.iew.iewExecutedInsts    325647080                       # Number of executed instructions
system.switch_cpus_1.iew.iewExecLoadInsts    158952320                       # Number of load instructions executed
system.switch_cpus_1.iew.iewExecSquashedInsts        12909                       # Number of squashed instructions skipped in execute
system.switch_cpus_1.iew.exec_swp                   0                       # number of swp insts executed
system.switch_cpus_1.iew.exec_nop                   1                       # number of nop insts executed
system.switch_cpus_1.iew.exec_refs          177347682                       # number of memory reference insts executed
system.switch_cpus_1.iew.exec_branches        3142103                       # Number of branches executed
system.switch_cpus_1.iew.exec_stores         18395362                       # Number of stores executed
system.switch_cpus_1.iew.exec_rate           0.557117                       # Inst execution rate
system.switch_cpus_1.iew.wb_sent            204968074                       # cumulative count of insts sent to commit
system.switch_cpus_1.iew.wb_count           204775085                       # cumulative count of insts written-back
system.switch_cpus_1.iew.wb_producers       162522274                       # num instructions producing a value
system.switch_cpus_1.iew.wb_consumers       223364499                       # num instructions consuming a value
system.switch_cpus_1.iew.wb_rate             0.350329                       # insts written-back per cycle
system.switch_cpus_1.iew.wb_fanout           0.727610                       # average fanout of values written-back
system.switch_cpus_1.commit.commitSquashedInsts      6998559                       # The number of squashed insts skipped by commit
system.switch_cpus_1.commit.branchMispredicts        10201                       # The number of times a branch was mispredicted
system.switch_cpus_1.commit.committed_per_cycle::samples    583617325                       # Number of insts commited each cycle
system.switch_cpus_1.commit.committed_per_cycle::mean     0.342690                       # Number of insts commited each cycle
system.switch_cpus_1.commit.committed_per_cycle::stdev     1.485938                       # Number of insts commited each cycle
system.switch_cpus_1.commit.committed_per_cycle::underflows            0      0.00%      0.00% # Number of insts commited each cycle
system.switch_cpus_1.commit.committed_per_cycle::0    545120746     93.40%     93.40% # Number of insts commited each cycle
system.switch_cpus_1.commit.committed_per_cycle::1      8436179      1.45%     94.85% # Number of insts commited each cycle
system.switch_cpus_1.commit.committed_per_cycle::2      1830511      0.31%     95.16% # Number of insts commited each cycle
system.switch_cpus_1.commit.committed_per_cycle::3      2081137      0.36%     95.52% # Number of insts commited each cycle
system.switch_cpus_1.commit.committed_per_cycle::4      3222677      0.55%     96.07% # Number of insts commited each cycle
system.switch_cpus_1.commit.committed_per_cycle::5      3379170      0.58%     96.65% # Number of insts commited each cycle
system.switch_cpus_1.commit.committed_per_cycle::6      1588164      0.27%     96.92% # Number of insts commited each cycle
system.switch_cpus_1.commit.committed_per_cycle::7      1326079      0.23%     97.15% # Number of insts commited each cycle
system.switch_cpus_1.commit.committed_per_cycle::8     16632662      2.85%    100.00% # Number of insts commited each cycle
system.switch_cpus_1.commit.committed_per_cycle::overflows            0      0.00%    100.00% # Number of insts commited each cycle
system.switch_cpus_1.commit.committed_per_cycle::min_value            0                       # Number of insts commited each cycle
system.switch_cpus_1.commit.committed_per_cycle::max_value            8                       # Number of insts commited each cycle
system.switch_cpus_1.commit.committed_per_cycle::total    583617325                       # Number of insts commited each cycle
system.switch_cpus_1.commit.committedInsts    200000003                       # Number of instructions committed
system.switch_cpus_1.commit.committedOps    200000003                       # Number of ops (including micro ops) committed
system.switch_cpus_1.commit.swp_count               0                       # Number of s/w prefetches committed
system.switch_cpus_1.commit.refs             54806565                       # Number of memory references committed
system.switch_cpus_1.commit.loads            36944574                       # Number of loads committed
system.switch_cpus_1.commit.membars                 0                       # Number of memory barriers committed
system.switch_cpus_1.commit.branches          3002738                       # Number of branches committed
system.switch_cpus_1.commit.fp_insts        178679405                       # Number of committed floating point instructions.
system.switch_cpus_1.commit.int_insts        74337577                       # Number of committed integer instructions.
system.switch_cpus_1.commit.function_calls            0                       # Number of function calls committed.
system.switch_cpus_1.commit.op_class_0::No_OpClass            0      0.00%      0.00% # Class of committed instruction
system.switch_cpus_1.commit.op_class_0::IntAlu     20683879     10.34%     10.34% # Class of committed instruction
system.switch_cpus_1.commit.op_class_0::IntMult            0      0.00%     10.34% # Class of committed instruction
system.switch_cpus_1.commit.op_class_0::IntDiv            0      0.00%     10.34% # Class of committed instruction
system.switch_cpus_1.commit.op_class_0::FloatAdd     77818474     38.91%     49.25% # Class of committed instruction
system.switch_cpus_1.commit.op_class_0::FloatCmp            0      0.00%     49.25% # Class of committed instruction
system.switch_cpus_1.commit.op_class_0::FloatCvt            0      0.00%     49.25% # Class of committed instruction
system.switch_cpus_1.commit.op_class_0::FloatMult     44961786     22.48%     71.73% # Class of committed instruction
system.switch_cpus_1.commit.op_class_0::FloatMultAcc            0      0.00%     71.73% # Class of committed instruction
system.switch_cpus_1.commit.op_class_0::FloatDiv      1729299      0.86%     72.60% # Class of committed instruction
system.switch_cpus_1.commit.op_class_0::FloatMisc            0      0.00%     72.60% # Class of committed instruction
system.switch_cpus_1.commit.op_class_0::FloatSqrt            0      0.00%     72.60% # Class of committed instruction
system.switch_cpus_1.commit.op_class_0::SimdAdd            0      0.00%     72.60% # Class of committed instruction
system.switch_cpus_1.commit.op_class_0::SimdAddAcc            0      0.00%     72.60% # Class of committed instruction
system.switch_cpus_1.commit.op_class_0::SimdAlu            0      0.00%     72.60% # Class of committed instruction
system.switch_cpus_1.commit.op_class_0::SimdCmp            0      0.00%     72.60% # Class of committed instruction
system.switch_cpus_1.commit.op_class_0::SimdCvt            0      0.00%     72.60% # Class of committed instruction
system.switch_cpus_1.commit.op_class_0::SimdMisc            0      0.00%     72.60% # Class of committed instruction
system.switch_cpus_1.commit.op_class_0::SimdMult            0      0.00%     72.60% # Class of committed instruction
system.switch_cpus_1.commit.op_class_0::SimdMultAcc            0      0.00%     72.60% # Class of committed instruction
system.switch_cpus_1.commit.op_class_0::SimdShift            0      0.00%     72.60% # Class of committed instruction
system.switch_cpus_1.commit.op_class_0::SimdShiftAcc            0      0.00%     72.60% # Class of committed instruction
system.switch_cpus_1.commit.op_class_0::SimdSqrt            0      0.00%     72.60% # Class of committed instruction
system.switch_cpus_1.commit.op_class_0::SimdFloatAdd            0      0.00%     72.60% # Class of committed instruction
system.switch_cpus_1.commit.op_class_0::SimdFloatAlu            0      0.00%     72.60% # Class of committed instruction
system.switch_cpus_1.commit.op_class_0::SimdFloatCmp            0      0.00%     72.60% # Class of committed instruction
system.switch_cpus_1.commit.op_class_0::SimdFloatCvt            0      0.00%     72.60% # Class of committed instruction
system.switch_cpus_1.commit.op_class_0::SimdFloatDiv            0      0.00%     72.60% # Class of committed instruction
system.switch_cpus_1.commit.op_class_0::SimdFloatMisc            0      0.00%     72.60% # Class of committed instruction
system.switch_cpus_1.commit.op_class_0::SimdFloatMult            0      0.00%     72.60% # Class of committed instruction
system.switch_cpus_1.commit.op_class_0::SimdFloatMultAcc            0      0.00%     72.60% # Class of committed instruction
system.switch_cpus_1.commit.op_class_0::SimdFloatSqrt            0      0.00%     72.60% # Class of committed instruction
system.switch_cpus_1.commit.op_class_0::MemRead       636719      0.32%     72.92% # Class of committed instruction
system.switch_cpus_1.commit.op_class_0::MemWrite            0      0.00%     72.92% # Class of committed instruction
system.switch_cpus_1.commit.op_class_0::FloatMemRead     36307855     18.15%     91.07% # Class of committed instruction
system.switch_cpus_1.commit.op_class_0::FloatMemWrite     17861991      8.93%    100.00% # Class of committed instruction
system.switch_cpus_1.commit.op_class_0::IprAccess            0      0.00%    100.00% # Class of committed instruction
system.switch_cpus_1.commit.op_class_0::InstPrefetch            0      0.00%    100.00% # Class of committed instruction
system.switch_cpus_1.commit.op_class_0::total    200000003                       # Class of committed instruction
system.switch_cpus_1.commit.bw_lim_events     16632662                       # number cycles where commit BW limit reached
system.switch_cpus_1.rob.rob_reads          773315896                       # The number of ROB reads
system.switch_cpus_1.rob.rob_writes         414902273                       # The number of ROB writes
system.switch_cpus_1.committedInsts         200000003                       # Number of Instructions Simulated
system.switch_cpus_1.committedOps           200000003                       # Number of Ops (including micro ops) Simulated
system.switch_cpus_1.cpi                     2.922612                       # CPI: Cycles Per Instruction
system.switch_cpus_1.cpi_total               2.922612                       # CPI: Total CPI of All Threads
system.switch_cpus_1.ipc                     0.342160                       # IPC: Instructions Per Cycle
system.switch_cpus_1.ipc_total               0.342160                       # IPC: Total IPC of All Threads
system.switch_cpus_1.int_regfile_reads      198597960                       # number of integer regfile reads
system.switch_cpus_1.int_regfile_writes      19282732                       # number of integer regfile writes
system.switch_cpus_1.fp_regfile_reads       271476836                       # number of floating regfile reads
system.switch_cpus_1.fp_regfile_writes      164008697                       # number of floating regfile writes
system.tol3bus.snoop_filter.tot_requests     76288136                       # Total number of requests made to the snoop filter.
system.tol3bus.snoop_filter.hit_single_requests     38141897                       # Number of requests hitting in the snoop filter with a single holder of the requested data.
system.tol3bus.snoop_filter.hit_multi_requests            0                       # Number of requests hitting in the snoop filter with multiple (>1) holders of the requested data.
system.tol3bus.snoop_filter.tot_snoops            184                       # Total number of snoops made to the snoop filter.
system.tol3bus.snoop_filter.hit_single_snoops          184                       # Number of snoops hitting in the snoop filter with a single holder of the requested data.
system.tol3bus.snoop_filter.hit_multi_snoops            0                       # Number of snoops hitting in the snoop filter with multiple (>1) holders of the requested data.
system.tol3bus.pwrStateResidencyTicks::UNDEFINED 24113840495193                       # Cumulative time (in ticks) in various power states
system.tol3bus.trans_dist::ReadResp           9536652                       # Transaction distribution
system.tol3bus.trans_dist::WritebackDirty     52448709                       # Transaction distribution
system.tol3bus.trans_dist::CleanEvict        19048200                       # Transaction distribution
system.tol3bus.trans_dist::ReadExReq         28609587                       # Transaction distribution
system.tol3bus.trans_dist::ReadExResp        28609585                       # Transaction distribution
system.tol3bus.trans_dist::ReadSharedReq      9536652                       # Transaction distribution
system.tol3bus.pkt_count_system.cpu.l2.mem_side::system.l3.cpu_side    114434373                       # Packet count per connected master and slave (bytes)
system.tol3bus.pkt_size_system.cpu.l2.mem_side::system.l3.cpu_side   4272153728                       # Cumulative packet size per connected master and slave (bytes)
system.tol3bus.snoops                        33355012                       # Total snoops (count)
system.tol3bus.snoopTraffic                1525922816                       # Total snoop traffic (bytes)
system.tol3bus.snoop_fanout::samples         71501251                       # Request fanout histogram
system.tol3bus.snoop_fanout::mean            0.000003                       # Request fanout histogram
system.tol3bus.snoop_fanout::stdev           0.001604                       # Request fanout histogram
system.tol3bus.snoop_fanout::underflows             0      0.00%      0.00% # Request fanout histogram
system.tol3bus.snoop_fanout::0               71501067    100.00%    100.00% # Request fanout histogram
system.tol3bus.snoop_fanout::1                    184      0.00%    100.00% # Request fanout histogram
system.tol3bus.snoop_fanout::overflows              0      0.00%    100.00% # Request fanout histogram
system.tol3bus.snoop_fanout::min_value              0                       # Request fanout histogram
system.tol3bus.snoop_fanout::max_value              1                       # Request fanout histogram
system.tol3bus.snoop_fanout::total           71501251                       # Request fanout histogram
system.tol3bus.reqLayer0.occupancy        34929802233                       # Layer occupancy (ticks)
system.tol3bus.reqLayer0.utilization              0.8                       # Layer utilization (%)
system.tol3bus.respLayer0.occupancy       25405393842                       # Layer occupancy (ticks)
system.tol3bus.respLayer0.utilization             0.6                       # Layer utilization (%)

---------- End Simulation Statistics   ----------
