
---------- Begin Simulation Statistics ----------
sim_seconds                                  3.635530                       # Number of seconds simulated
sim_ticks                                3635530315182                       # Number of ticks simulated
final_tick                               130588526839914                       # Number of ticks from beginning of simulation (restored from checkpoints and never reset)
sim_freq                                 1000000000000                       # Frequency of simulated ticks
host_inst_rate                                 191684                       # Simulator instruction rate (inst/s)
host_op_rate                                   191684                       # Simulator op (including micro ops) rate (op/s)
host_tick_rate                              580726159                       # Simulator tick rate (ticks/s)
host_mem_usage                                2435920                       # Number of bytes of host memory used
host_seconds                                  6260.32                       # Real time elapsed on the host
sim_insts                                  1200000003                       # Number of instructions simulated
sim_ops                                    1200000003                       # Number of ops (including micro ops) simulated
system.voltage_domain.voltage                       1                       # Voltage in Volts
system.clk_domain.clock                          1000                       # Clock period in ticks
system.mem_ctrls0.pwrStateResidencyTicks::UNDEFINED 130588526839914                       # Cumulative time (in ticks) in various power states
system.mem_ctrls0.bytes_read::cpu.inst            128                       # Number of bytes read from this memory
system.mem_ctrls0.bytes_read::switch_cpus.inst       115328                       # Number of bytes read from this memory
system.mem_ctrls0.bytes_read::switch_cpus.data    383522112                       # Number of bytes read from this memory
system.mem_ctrls0.bytes_read::switch_cpus_1.inst        41280                       # Number of bytes read from this memory
system.mem_ctrls0.bytes_read::switch_cpus_1.data     86557312                       # Number of bytes read from this memory
system.mem_ctrls0.bytes_read::total         470236160                       # Number of bytes read from this memory
system.mem_ctrls0.bytes_inst_read::cpu.inst          128                       # Number of instructions bytes read from this memory
system.mem_ctrls0.bytes_inst_read::switch_cpus.inst       115328                       # Number of instructions bytes read from this memory
system.mem_ctrls0.bytes_inst_read::switch_cpus_1.inst        41280                       # Number of instructions bytes read from this memory
system.mem_ctrls0.bytes_inst_read::total       156736                       # Number of instructions bytes read from this memory
system.mem_ctrls0.bytes_written::writebacks    196827712                       # Number of bytes written to this memory
system.mem_ctrls0.bytes_written::total      196827712                       # Number of bytes written to this memory
system.mem_ctrls0.num_reads::cpu.inst               2                       # Number of read requests responded to by this memory
system.mem_ctrls0.num_reads::switch_cpus.inst         1802                       # Number of read requests responded to by this memory
system.mem_ctrls0.num_reads::switch_cpus.data      5992533                       # Number of read requests responded to by this memory
system.mem_ctrls0.num_reads::switch_cpus_1.inst          645                       # Number of read requests responded to by this memory
system.mem_ctrls0.num_reads::switch_cpus_1.data      1352458                       # Number of read requests responded to by this memory
system.mem_ctrls0.num_reads::total            7347440                       # Number of read requests responded to by this memory
system.mem_ctrls0.num_writes::writebacks      3075433                       # Number of write requests responded to by this memory
system.mem_ctrls0.num_writes::total           3075433                       # Number of write requests responded to by this memory
system.mem_ctrls0.bw_read::cpu.inst                35                       # Total read bandwidth from this memory (bytes/s)
system.mem_ctrls0.bw_read::switch_cpus.inst        31722                       # Total read bandwidth from this memory (bytes/s)
system.mem_ctrls0.bw_read::switch_cpus.data    105492756                       # Total read bandwidth from this memory (bytes/s)
system.mem_ctrls0.bw_read::switch_cpus_1.inst        11355                       # Total read bandwidth from this memory (bytes/s)
system.mem_ctrls0.bw_read::switch_cpus_1.data     23808717                       # Total read bandwidth from this memory (bytes/s)
system.mem_ctrls0.bw_read::total            129344585                       # Total read bandwidth from this memory (bytes/s)
system.mem_ctrls0.bw_inst_read::cpu.inst           35                       # Instruction read bandwidth from this memory (bytes/s)
system.mem_ctrls0.bw_inst_read::switch_cpus.inst        31722                       # Instruction read bandwidth from this memory (bytes/s)
system.mem_ctrls0.bw_inst_read::switch_cpus_1.inst        11355                       # Instruction read bandwidth from this memory (bytes/s)
system.mem_ctrls0.bw_inst_read::total           43112                       # Instruction read bandwidth from this memory (bytes/s)
system.mem_ctrls0.bw_write::writebacks       54140028                       # Write bandwidth from this memory (bytes/s)
system.mem_ctrls0.bw_write::total            54140028                       # Write bandwidth from this memory (bytes/s)
system.mem_ctrls0.bw_total::writebacks       54140028                       # Total bandwidth to/from this memory (bytes/s)
system.mem_ctrls0.bw_total::cpu.inst               35                       # Total bandwidth to/from this memory (bytes/s)
system.mem_ctrls0.bw_total::switch_cpus.inst        31722                       # Total bandwidth to/from this memory (bytes/s)
system.mem_ctrls0.bw_total::switch_cpus.data    105492756                       # Total bandwidth to/from this memory (bytes/s)
system.mem_ctrls0.bw_total::switch_cpus_1.inst        11355                       # Total bandwidth to/from this memory (bytes/s)
system.mem_ctrls0.bw_total::switch_cpus_1.data     23808717                       # Total bandwidth to/from this memory (bytes/s)
system.mem_ctrls0.bw_total::total           183484613                       # Total bandwidth to/from this memory (bytes/s)
system.mem_ctrls0.readReqs                    7347440                       # Number of read requests accepted
system.mem_ctrls0.writeReqs                   3075433                       # Number of write requests accepted
system.mem_ctrls0.readBursts                  7347440                       # Number of DRAM read bursts, including those serviced by the write queue
system.mem_ctrls0.writeBursts                 3075433                       # Number of DRAM write bursts, including those merged in the write queue
system.mem_ctrls0.bytesReadDRAM             469972416                       # Total number of bytes read from DRAM
system.mem_ctrls0.bytesReadWrQ                 263744                       # Total number of bytes read from write queue
system.mem_ctrls0.bytesWritten              196825728                       # Total number of bytes written to DRAM
system.mem_ctrls0.bytesReadSys              470236160                       # Total read bytes from the system interface side
system.mem_ctrls0.bytesWrittenSys           196827712                       # Total written bytes from the system interface side
system.mem_ctrls0.servicedByWrQ                  4121                       # Number of DRAM read bursts serviced by the write queue
system.mem_ctrls0.mergedWrBursts                    0                       # Number of DRAM write bursts merged with an existing one
system.mem_ctrls0.neitherReadNorWriteReqs            0                       # Number of requests that are neither read nor write
system.mem_ctrls0.perBankRdBursts::0           454118                       # Per bank write bursts
system.mem_ctrls0.perBankRdBursts::1           465938                       # Per bank write bursts
system.mem_ctrls0.perBankRdBursts::2           463625                       # Per bank write bursts
system.mem_ctrls0.perBankRdBursts::3           444982                       # Per bank write bursts
system.mem_ctrls0.perBankRdBursts::4           444724                       # Per bank write bursts
system.mem_ctrls0.perBankRdBursts::5           464452                       # Per bank write bursts
system.mem_ctrls0.perBankRdBursts::6           472091                       # Per bank write bursts
system.mem_ctrls0.perBankRdBursts::7           470707                       # Per bank write bursts
system.mem_ctrls0.perBankRdBursts::8           482611                       # Per bank write bursts
system.mem_ctrls0.perBankRdBursts::9           461660                       # Per bank write bursts
system.mem_ctrls0.perBankRdBursts::10          445590                       # Per bank write bursts
system.mem_ctrls0.perBankRdBursts::11          445042                       # Per bank write bursts
system.mem_ctrls0.perBankRdBursts::12          443039                       # Per bank write bursts
system.mem_ctrls0.perBankRdBursts::13          463130                       # Per bank write bursts
system.mem_ctrls0.perBankRdBursts::14          463540                       # Per bank write bursts
system.mem_ctrls0.perBankRdBursts::15          458070                       # Per bank write bursts
system.mem_ctrls0.perBankWrBursts::0           191377                       # Per bank write bursts
system.mem_ctrls0.perBankWrBursts::1           191612                       # Per bank write bursts
system.mem_ctrls0.perBankWrBursts::2           195328                       # Per bank write bursts
system.mem_ctrls0.perBankWrBursts::3           183341                       # Per bank write bursts
system.mem_ctrls0.perBankWrBursts::4           185252                       # Per bank write bursts
system.mem_ctrls0.perBankWrBursts::5           194707                       # Per bank write bursts
system.mem_ctrls0.perBankWrBursts::6           201060                       # Per bank write bursts
system.mem_ctrls0.perBankWrBursts::7           200486                       # Per bank write bursts
system.mem_ctrls0.perBankWrBursts::8           201919                       # Per bank write bursts
system.mem_ctrls0.perBankWrBursts::9           190641                       # Per bank write bursts
system.mem_ctrls0.perBankWrBursts::10          188350                       # Per bank write bursts
system.mem_ctrls0.perBankWrBursts::11          190247                       # Per bank write bursts
system.mem_ctrls0.perBankWrBursts::12          182567                       # Per bank write bursts
system.mem_ctrls0.perBankWrBursts::13          192088                       # Per bank write bursts
system.mem_ctrls0.perBankWrBursts::14          196264                       # Per bank write bursts
system.mem_ctrls0.perBankWrBursts::15          190163                       # Per bank write bursts
system.mem_ctrls0.numRdRetry                        0                       # Number of times read queue was full causing retry
system.mem_ctrls0.numWrRetry                        0                       # Number of times write queue was full causing retry
system.mem_ctrls0.totGap                 3635530196967                       # Total gap between requests
system.mem_ctrls0.readPktSize::0                    0                       # Read request sizes (log2)
system.mem_ctrls0.readPktSize::1                    0                       # Read request sizes (log2)
system.mem_ctrls0.readPktSize::2                    0                       # Read request sizes (log2)
system.mem_ctrls0.readPktSize::3                    0                       # Read request sizes (log2)
system.mem_ctrls0.readPktSize::4                    0                       # Read request sizes (log2)
system.mem_ctrls0.readPktSize::5                    0                       # Read request sizes (log2)
system.mem_ctrls0.readPktSize::6              7347440                       # Read request sizes (log2)
system.mem_ctrls0.writePktSize::0                   0                       # Write request sizes (log2)
system.mem_ctrls0.writePktSize::1                   0                       # Write request sizes (log2)
system.mem_ctrls0.writePktSize::2                   0                       # Write request sizes (log2)
system.mem_ctrls0.writePktSize::3                   0                       # Write request sizes (log2)
system.mem_ctrls0.writePktSize::4                   0                       # Write request sizes (log2)
system.mem_ctrls0.writePktSize::5                   0                       # Write request sizes (log2)
system.mem_ctrls0.writePktSize::6             3075433                       # Write request sizes (log2)
system.mem_ctrls0.rdQLenPdf::0                7078133                       # What read queue length does an incoming req see
system.mem_ctrls0.rdQLenPdf::1                 237005                       # What read queue length does an incoming req see
system.mem_ctrls0.rdQLenPdf::2                  26535                       # What read queue length does an incoming req see
system.mem_ctrls0.rdQLenPdf::3                   1646                       # What read queue length does an incoming req see
system.mem_ctrls0.rdQLenPdf::4                      0                       # What read queue length does an incoming req see
system.mem_ctrls0.rdQLenPdf::5                      0                       # What read queue length does an incoming req see
system.mem_ctrls0.rdQLenPdf::6                      0                       # What read queue length does an incoming req see
system.mem_ctrls0.rdQLenPdf::7                      0                       # What read queue length does an incoming req see
system.mem_ctrls0.rdQLenPdf::8                      0                       # What read queue length does an incoming req see
system.mem_ctrls0.rdQLenPdf::9                      0                       # What read queue length does an incoming req see
system.mem_ctrls0.rdQLenPdf::10                     0                       # What read queue length does an incoming req see
system.mem_ctrls0.rdQLenPdf::11                     0                       # What read queue length does an incoming req see
system.mem_ctrls0.rdQLenPdf::12                     0                       # What read queue length does an incoming req see
system.mem_ctrls0.rdQLenPdf::13                     0                       # What read queue length does an incoming req see
system.mem_ctrls0.rdQLenPdf::14                     0                       # What read queue length does an incoming req see
system.mem_ctrls0.rdQLenPdf::15                     0                       # What read queue length does an incoming req see
system.mem_ctrls0.rdQLenPdf::16                     0                       # What read queue length does an incoming req see
system.mem_ctrls0.rdQLenPdf::17                     0                       # What read queue length does an incoming req see
system.mem_ctrls0.rdQLenPdf::18                     0                       # What read queue length does an incoming req see
system.mem_ctrls0.rdQLenPdf::19                     0                       # What read queue length does an incoming req see
system.mem_ctrls0.rdQLenPdf::20                     0                       # What read queue length does an incoming req see
system.mem_ctrls0.rdQLenPdf::21                     0                       # What read queue length does an incoming req see
system.mem_ctrls0.rdQLenPdf::22                     0                       # What read queue length does an incoming req see
system.mem_ctrls0.rdQLenPdf::23                     0                       # What read queue length does an incoming req see
system.mem_ctrls0.rdQLenPdf::24                     0                       # What read queue length does an incoming req see
system.mem_ctrls0.rdQLenPdf::25                     0                       # What read queue length does an incoming req see
system.mem_ctrls0.rdQLenPdf::26                     0                       # What read queue length does an incoming req see
system.mem_ctrls0.rdQLenPdf::27                     0                       # What read queue length does an incoming req see
system.mem_ctrls0.rdQLenPdf::28                     0                       # What read queue length does an incoming req see
system.mem_ctrls0.rdQLenPdf::29                     0                       # What read queue length does an incoming req see
system.mem_ctrls0.rdQLenPdf::30                     0                       # What read queue length does an incoming req see
system.mem_ctrls0.rdQLenPdf::31                     0                       # What read queue length does an incoming req see
system.mem_ctrls0.wrQLenPdf::0                      2                       # What write queue length does an incoming req see
system.mem_ctrls0.wrQLenPdf::1                      2                       # What write queue length does an incoming req see
system.mem_ctrls0.wrQLenPdf::2                      2                       # What write queue length does an incoming req see
system.mem_ctrls0.wrQLenPdf::3                      2                       # What write queue length does an incoming req see
system.mem_ctrls0.wrQLenPdf::4                      2                       # What write queue length does an incoming req see
system.mem_ctrls0.wrQLenPdf::5                      2                       # What write queue length does an incoming req see
system.mem_ctrls0.wrQLenPdf::6                      2                       # What write queue length does an incoming req see
system.mem_ctrls0.wrQLenPdf::7                      2                       # What write queue length does an incoming req see
system.mem_ctrls0.wrQLenPdf::8                      2                       # What write queue length does an incoming req see
system.mem_ctrls0.wrQLenPdf::9                      2                       # What write queue length does an incoming req see
system.mem_ctrls0.wrQLenPdf::10                     2                       # What write queue length does an incoming req see
system.mem_ctrls0.wrQLenPdf::11                     2                       # What write queue length does an incoming req see
system.mem_ctrls0.wrQLenPdf::12                     2                       # What write queue length does an incoming req see
system.mem_ctrls0.wrQLenPdf::13                     2                       # What write queue length does an incoming req see
system.mem_ctrls0.wrQLenPdf::14                     2                       # What write queue length does an incoming req see
system.mem_ctrls0.wrQLenPdf::15                150961                       # What write queue length does an incoming req see
system.mem_ctrls0.wrQLenPdf::16                155911                       # What write queue length does an incoming req see
system.mem_ctrls0.wrQLenPdf::17                171966                       # What write queue length does an incoming req see
system.mem_ctrls0.wrQLenPdf::18                172799                       # What write queue length does an incoming req see
system.mem_ctrls0.wrQLenPdf::19                172860                       # What write queue length does an incoming req see
system.mem_ctrls0.wrQLenPdf::20                172900                       # What write queue length does an incoming req see
system.mem_ctrls0.wrQLenPdf::21                172925                       # What write queue length does an incoming req see
system.mem_ctrls0.wrQLenPdf::22                173193                       # What write queue length does an incoming req see
system.mem_ctrls0.wrQLenPdf::23                174805                       # What write queue length does an incoming req see
system.mem_ctrls0.wrQLenPdf::24                173110                       # What write queue length does an incoming req see
system.mem_ctrls0.wrQLenPdf::25                172925                       # What write queue length does an incoming req see
system.mem_ctrls0.wrQLenPdf::26                172874                       # What write queue length does an incoming req see
system.mem_ctrls0.wrQLenPdf::27                172865                       # What write queue length does an incoming req see
system.mem_ctrls0.wrQLenPdf::28                172887                       # What write queue length does an incoming req see
system.mem_ctrls0.wrQLenPdf::29                173095                       # What write queue length does an incoming req see
system.mem_ctrls0.wrQLenPdf::30                174037                       # What write queue length does an incoming req see
system.mem_ctrls0.wrQLenPdf::31                172633                       # What write queue length does an incoming req see
system.mem_ctrls0.wrQLenPdf::32                172620                       # What write queue length does an incoming req see
system.mem_ctrls0.wrQLenPdf::33                    36                       # What write queue length does an incoming req see
system.mem_ctrls0.wrQLenPdf::34                     1                       # What write queue length does an incoming req see
system.mem_ctrls0.wrQLenPdf::35                     0                       # What write queue length does an incoming req see
system.mem_ctrls0.wrQLenPdf::36                     0                       # What write queue length does an incoming req see
system.mem_ctrls0.wrQLenPdf::37                     0                       # What write queue length does an incoming req see
system.mem_ctrls0.wrQLenPdf::38                     0                       # What write queue length does an incoming req see
system.mem_ctrls0.wrQLenPdf::39                     0                       # What write queue length does an incoming req see
system.mem_ctrls0.wrQLenPdf::40                     0                       # What write queue length does an incoming req see
system.mem_ctrls0.wrQLenPdf::41                     0                       # What write queue length does an incoming req see
system.mem_ctrls0.wrQLenPdf::42                     0                       # What write queue length does an incoming req see
system.mem_ctrls0.wrQLenPdf::43                     0                       # What write queue length does an incoming req see
system.mem_ctrls0.wrQLenPdf::44                     0                       # What write queue length does an incoming req see
system.mem_ctrls0.wrQLenPdf::45                     0                       # What write queue length does an incoming req see
system.mem_ctrls0.wrQLenPdf::46                     0                       # What write queue length does an incoming req see
system.mem_ctrls0.wrQLenPdf::47                     0                       # What write queue length does an incoming req see
system.mem_ctrls0.wrQLenPdf::48                     0                       # What write queue length does an incoming req see
system.mem_ctrls0.wrQLenPdf::49                     0                       # What write queue length does an incoming req see
system.mem_ctrls0.wrQLenPdf::50                     0                       # What write queue length does an incoming req see
system.mem_ctrls0.wrQLenPdf::51                     0                       # What write queue length does an incoming req see
system.mem_ctrls0.wrQLenPdf::52                     0                       # What write queue length does an incoming req see
system.mem_ctrls0.wrQLenPdf::53                     0                       # What write queue length does an incoming req see
system.mem_ctrls0.wrQLenPdf::54                     0                       # What write queue length does an incoming req see
system.mem_ctrls0.wrQLenPdf::55                     0                       # What write queue length does an incoming req see
system.mem_ctrls0.wrQLenPdf::56                     0                       # What write queue length does an incoming req see
system.mem_ctrls0.wrQLenPdf::57                     0                       # What write queue length does an incoming req see
system.mem_ctrls0.wrQLenPdf::58                     0                       # What write queue length does an incoming req see
system.mem_ctrls0.wrQLenPdf::59                     0                       # What write queue length does an incoming req see
system.mem_ctrls0.wrQLenPdf::60                     0                       # What write queue length does an incoming req see
system.mem_ctrls0.wrQLenPdf::61                     0                       # What write queue length does an incoming req see
system.mem_ctrls0.wrQLenPdf::62                     0                       # What write queue length does an incoming req see
system.mem_ctrls0.wrQLenPdf::63                     0                       # What write queue length does an incoming req see
system.mem_ctrls0.bytesPerActivate::samples      6733318                       # Bytes accessed per row activation
system.mem_ctrls0.bytesPerActivate::mean    99.029406                       # Bytes accessed per row activation
system.mem_ctrls0.bytesPerActivate::gmean    82.589035                       # Bytes accessed per row activation
system.mem_ctrls0.bytesPerActivate::stdev    87.976251                       # Bytes accessed per row activation
system.mem_ctrls0.bytesPerActivate::0-127      5118604     76.02%     76.02% # Bytes accessed per row activation
system.mem_ctrls0.bytesPerActivate::128-255      1160917     17.24%     93.26% # Bytes accessed per row activation
system.mem_ctrls0.bytesPerActivate::256-383       258001      3.83%     97.09% # Bytes accessed per row activation
system.mem_ctrls0.bytesPerActivate::384-511       113363      1.68%     98.78% # Bytes accessed per row activation
system.mem_ctrls0.bytesPerActivate::512-639        53043      0.79%     99.56% # Bytes accessed per row activation
system.mem_ctrls0.bytesPerActivate::640-767        18758      0.28%     99.84% # Bytes accessed per row activation
system.mem_ctrls0.bytesPerActivate::768-895         6314      0.09%     99.94% # Bytes accessed per row activation
system.mem_ctrls0.bytesPerActivate::896-1023         2583      0.04%     99.97% # Bytes accessed per row activation
system.mem_ctrls0.bytesPerActivate::1024-1151         1735      0.03%    100.00% # Bytes accessed per row activation
system.mem_ctrls0.bytesPerActivate::total      6733318                       # Bytes accessed per row activation
system.mem_ctrls0.rdPerTurnAround::samples       172613                       # Reads before turning the bus around for writes
system.mem_ctrls0.rdPerTurnAround::mean     42.541883                       # Reads before turning the bus around for writes
system.mem_ctrls0.rdPerTurnAround::gmean    40.893404                       # Reads before turning the bus around for writes
system.mem_ctrls0.rdPerTurnAround::stdev    57.017116                       # Reads before turning the bus around for writes
system.mem_ctrls0.rdPerTurnAround::0-1023       172611    100.00%    100.00% # Reads before turning the bus around for writes
system.mem_ctrls0.rdPerTurnAround::1024-2047            1      0.00%    100.00% # Reads before turning the bus around for writes
system.mem_ctrls0.rdPerTurnAround::22528-23551            1      0.00%    100.00% # Reads before turning the bus around for writes
system.mem_ctrls0.rdPerTurnAround::total       172613                       # Reads before turning the bus around for writes
system.mem_ctrls0.wrPerTurnAround::samples       172613                       # Writes before turning the bus around for reads
system.mem_ctrls0.wrPerTurnAround::mean     17.816746                       # Writes before turning the bus around for reads
system.mem_ctrls0.wrPerTurnAround::gmean    17.804405                       # Writes before turning the bus around for reads
system.mem_ctrls0.wrPerTurnAround::stdev     0.647029                       # Writes before turning the bus around for reads
system.mem_ctrls0.wrPerTurnAround::16           16707      9.68%      9.68% # Writes before turning the bus around for reads
system.mem_ctrls0.wrPerTurnAround::17            4391      2.54%     12.22% # Writes before turning the bus around for reads
system.mem_ctrls0.wrPerTurnAround::18          145655     84.38%     96.61% # Writes before turning the bus around for reads
system.mem_ctrls0.wrPerTurnAround::19            5568      3.23%     99.83% # Writes before turning the bus around for reads
system.mem_ctrls0.wrPerTurnAround::20             271      0.16%     99.99% # Writes before turning the bus around for reads
system.mem_ctrls0.wrPerTurnAround::21              21      0.01%    100.00% # Writes before turning the bus around for reads
system.mem_ctrls0.wrPerTurnAround::total       172613                       # Writes before turning the bus around for reads
system.mem_ctrls0.totQLat                156961229554                       # Total ticks spent queuing
system.mem_ctrls0.totMemAccLat           294648460804                       # Total ticks spent from burst creation until serviced by the DRAM
system.mem_ctrls0.totBusLat               36716595000                       # Total ticks spent in databus transfers
system.mem_ctrls0.avgQLat                    21374.70                       # Average queueing delay per DRAM burst
system.mem_ctrls0.avgBusLat                   5000.00                       # Average bus latency per DRAM burst
system.mem_ctrls0.avgMemAccLat               40124.70                       # Average memory access latency per DRAM burst
system.mem_ctrls0.avgRdBW                      129.27                       # Average DRAM read bandwidth in MiByte/s
system.mem_ctrls0.avgWrBW                       54.14                       # Average achieved write bandwidth in MiByte/s
system.mem_ctrls0.avgRdBWSys                   129.34                       # Average system read bandwidth in MiByte/s
system.mem_ctrls0.avgWrBWSys                    54.14                       # Average system write bandwidth in MiByte/s
system.mem_ctrls0.peakBW                     12800.00                       # Theoretical peak bandwidth in MiByte/s
system.mem_ctrls0.busUtil                        1.43                       # Data bus utilization in percentage
system.mem_ctrls0.busUtilRead                    1.01                       # Data bus utilization in percentage for reads
system.mem_ctrls0.busUtilWrite                   0.42                       # Data bus utilization in percentage for writes
system.mem_ctrls0.avgRdQLen                      1.02                       # Average read queue length when enqueuing
system.mem_ctrls0.avgWrQLen                     24.53                       # Average write queue length when enqueuing
system.mem_ctrls0.readRowHits                 3636377                       # Number of row buffer hits during reads
system.mem_ctrls0.writeRowHits                  49017                       # Number of row buffer hits during writes
system.mem_ctrls0.readRowHitRate                49.52                       # Row buffer hit rate for reads
system.mem_ctrls0.writeRowHitRate                1.59                       # Row buffer hit rate for writes
system.mem_ctrls0.avgGap                    348803.08                       # Average gap between requests
system.mem_ctrls0.pageHitRate                   35.37                       # Row buffer hit rate, read and write combined
system.mem_ctrls0_0.actEnergy             24064748820                       # Energy for activate commands per rank (pJ)
system.mem_ctrls0_0.preEnergy             12790694565                       # Energy for precharge commands per rank (pJ)
system.mem_ctrls0_0.readEnergy            26279748180                       # Energy for read commands per rank (pJ)
system.mem_ctrls0_0.writeEnergy            8055310860                       # Energy for write commands per rank (pJ)
system.mem_ctrls0_0.refreshEnergy        288888790320.000061                       # Energy for refresh commands per rank (pJ)
system.mem_ctrls0_0.actBackEnergy        191328173340                       # Energy for active background per rank (pJ)
system.mem_ctrls0_0.preBackEnergy          7243052160                       # Energy for precharge background per rank (pJ)
system.mem_ctrls0_0.actPowerDownEnergy   1197296320200                       # Energy for active power-down per rank (pJ)
system.mem_ctrls0_0.prePowerDownEnergy   198718101120                       # Energy for precharge power-down per rank (pJ)
system.mem_ctrls0_0.selfRefreshEnergy     18903756120                       # Energy for self refresh per rank (pJ)
system.mem_ctrls0_0.totalEnergy          1973615727765                       # Total energy per rank (pJ)
system.mem_ctrls0_0.averagePower           542.868728                       # Core power per rank (mW)
system.mem_ctrls0_0.totalIdleTime        3196986105469                       # Total Idle time Per DRAM Rank
system.mem_ctrls0_0.memoryStateTime::IDLE   5500520387                       # Time in different power states
system.mem_ctrls0_0.memoryStateTime::REF 122272434000                       # Time in different power states
system.mem_ctrls0_0.memoryStateTime::SREF  53839402233                       # Time in different power states
system.mem_ctrls0_0.memoryStateTime::PRE_PDN 517493325950                       # Time in different power states
system.mem_ctrls0_0.memoryStateTime::ACT 310770445911                       # Time in different power states
system.mem_ctrls0_0.memoryStateTime::ACT_PDN 2625654186701                       # Time in different power states
system.mem_ctrls0_1.actEnergy             24011205960                       # Energy for activate commands per rank (pJ)
system.mem_ctrls0_1.preEnergy             12762247245                       # Energy for precharge commands per rank (pJ)
system.mem_ctrls0_1.readEnergy            26151549480                       # Energy for read commands per rank (pJ)
system.mem_ctrls0_1.writeEnergy            7998287580                       # Energy for write commands per rank (pJ)
system.mem_ctrls0_1.refreshEnergy        288939190800.000061                       # Energy for refresh commands per rank (pJ)
system.mem_ctrls0_1.actBackEnergy        191440560810                       # Energy for active background per rank (pJ)
system.mem_ctrls0_1.preBackEnergy          7258614240                       # Energy for precharge background per rank (pJ)
system.mem_ctrls0_1.actPowerDownEnergy   1196117712390                       # Energy for active power-down per rank (pJ)
system.mem_ctrls0_1.prePowerDownEnergy   199397307360                       # Energy for precharge power-down per rank (pJ)
system.mem_ctrls0_1.selfRefreshEnergy     19118989500                       # Energy for self refresh per rank (pJ)
system.mem_ctrls0_1.totalEnergy          1973238473055                       # Total energy per rank (pJ)
system.mem_ctrls0_1.averagePower           542.764959                       # Core power per rank (mW)
system.mem_ctrls0_1.totalIdleTime        3196714634928                       # Total Idle time Per DRAM Rank
system.mem_ctrls0_1.memoryStateTime::IDLE   5552559425                       # Time in different power states
system.mem_ctrls0_1.memoryStateTime::REF 122294414000                       # Time in different power states
system.mem_ctrls0_1.memoryStateTime::SREF  54377622511                       # Time in different power states
system.mem_ctrls0_1.memoryStateTime::PRE_PDN 519261591420                       # Time in different power states
system.mem_ctrls0_1.memoryStateTime::ACT 310968567410                       # Time in different power states
system.mem_ctrls0_1.memoryStateTime::ACT_PDN 2623075560416                       # Time in different power states
system.mem_ctrls1.pwrStateResidencyTicks::UNDEFINED 130588526839914                       # Cumulative time (in ticks) in various power states
system.mem_ctrls1.bytes_read::cpu.data            128                       # Number of bytes read from this memory
system.mem_ctrls1.bytes_read::switch_cpus.inst       123136                       # Number of bytes read from this memory
system.mem_ctrls1.bytes_read::switch_cpus.data    384327360                       # Number of bytes read from this memory
system.mem_ctrls1.bytes_read::switch_cpus_1.inst        43456                       # Number of bytes read from this memory
system.mem_ctrls1.bytes_read::switch_cpus_1.data     86724096                       # Number of bytes read from this memory
system.mem_ctrls1.bytes_read::total         471218176                       # Number of bytes read from this memory
system.mem_ctrls1.bytes_inst_read::switch_cpus.inst       123136                       # Number of instructions bytes read from this memory
system.mem_ctrls1.bytes_inst_read::switch_cpus_1.inst        43456                       # Number of instructions bytes read from this memory
system.mem_ctrls1.bytes_inst_read::total       166592                       # Number of instructions bytes read from this memory
system.mem_ctrls1.bytes_written::writebacks    196373568                       # Number of bytes written to this memory
system.mem_ctrls1.bytes_written::total      196373568                       # Number of bytes written to this memory
system.mem_ctrls1.num_reads::cpu.data               2                       # Number of read requests responded to by this memory
system.mem_ctrls1.num_reads::switch_cpus.inst         1924                       # Number of read requests responded to by this memory
system.mem_ctrls1.num_reads::switch_cpus.data      6005115                       # Number of read requests responded to by this memory
system.mem_ctrls1.num_reads::switch_cpus_1.inst          679                       # Number of read requests responded to by this memory
system.mem_ctrls1.num_reads::switch_cpus_1.data      1355064                       # Number of read requests responded to by this memory
system.mem_ctrls1.num_reads::total            7362784                       # Number of read requests responded to by this memory
system.mem_ctrls1.num_writes::writebacks      3068337                       # Number of write requests responded to by this memory
system.mem_ctrls1.num_writes::total           3068337                       # Number of write requests responded to by this memory
system.mem_ctrls1.bw_read::cpu.data                35                       # Total read bandwidth from this memory (bytes/s)
system.mem_ctrls1.bw_read::switch_cpus.inst        33870                       # Total read bandwidth from this memory (bytes/s)
system.mem_ctrls1.bw_read::switch_cpus.data    105714250                       # Total read bandwidth from this memory (bytes/s)
system.mem_ctrls1.bw_read::switch_cpus_1.inst        11953                       # Total read bandwidth from this memory (bytes/s)
system.mem_ctrls1.bw_read::switch_cpus_1.data     23854593                       # Total read bandwidth from this memory (bytes/s)
system.mem_ctrls1.bw_read::total            129614701                       # Total read bandwidth from this memory (bytes/s)
system.mem_ctrls1.bw_inst_read::switch_cpus.inst        33870                       # Instruction read bandwidth from this memory (bytes/s)
system.mem_ctrls1.bw_inst_read::switch_cpus_1.inst        11953                       # Instruction read bandwidth from this memory (bytes/s)
system.mem_ctrls1.bw_inst_read::total           45823                       # Instruction read bandwidth from this memory (bytes/s)
system.mem_ctrls1.bw_write::writebacks       54015109                       # Write bandwidth from this memory (bytes/s)
system.mem_ctrls1.bw_write::total            54015109                       # Write bandwidth from this memory (bytes/s)
system.mem_ctrls1.bw_total::writebacks       54015109                       # Total bandwidth to/from this memory (bytes/s)
system.mem_ctrls1.bw_total::cpu.data               35                       # Total bandwidth to/from this memory (bytes/s)
system.mem_ctrls1.bw_total::switch_cpus.inst        33870                       # Total bandwidth to/from this memory (bytes/s)
system.mem_ctrls1.bw_total::switch_cpus.data    105714250                       # Total bandwidth to/from this memory (bytes/s)
system.mem_ctrls1.bw_total::switch_cpus_1.inst        11953                       # Total bandwidth to/from this memory (bytes/s)
system.mem_ctrls1.bw_total::switch_cpus_1.data     23854593                       # Total bandwidth to/from this memory (bytes/s)
system.mem_ctrls1.bw_total::total           183629811                       # Total bandwidth to/from this memory (bytes/s)
system.mem_ctrls1.readReqs                    7362784                       # Number of read requests accepted
system.mem_ctrls1.writeReqs                   3068337                       # Number of write requests accepted
system.mem_ctrls1.readBursts                  7362784                       # Number of DRAM read bursts, including those serviced by the write queue
system.mem_ctrls1.writeBursts                 3068337                       # Number of DRAM write bursts, including those merged in the write queue
system.mem_ctrls1.bytesReadDRAM             470955136                       # Total number of bytes read from DRAM
system.mem_ctrls1.bytesReadWrQ                 263040                       # Total number of bytes read from write queue
system.mem_ctrls1.bytesWritten              196372352                       # Total number of bytes written to DRAM
system.mem_ctrls1.bytesReadSys              471218176                       # Total read bytes from the system interface side
system.mem_ctrls1.bytesWrittenSys           196373568                       # Total written bytes from the system interface side
system.mem_ctrls1.servicedByWrQ                  4110                       # Number of DRAM read bursts serviced by the write queue
system.mem_ctrls1.mergedWrBursts                    0                       # Number of DRAM write bursts merged with an existing one
system.mem_ctrls1.neitherReadNorWriteReqs            0                       # Number of requests that are neither read nor write
system.mem_ctrls1.perBankRdBursts::0           457483                       # Per bank write bursts
system.mem_ctrls1.perBankRdBursts::1           461066                       # Per bank write bursts
system.mem_ctrls1.perBankRdBursts::2           461798                       # Per bank write bursts
system.mem_ctrls1.perBankRdBursts::3           449816                       # Per bank write bursts
system.mem_ctrls1.perBankRdBursts::4           443990                       # Per bank write bursts
system.mem_ctrls1.perBankRdBursts::5           462790                       # Per bank write bursts
system.mem_ctrls1.perBankRdBursts::6           475995                       # Per bank write bursts
system.mem_ctrls1.perBankRdBursts::7           469069                       # Per bank write bursts
system.mem_ctrls1.perBankRdBursts::8           486022                       # Per bank write bursts
system.mem_ctrls1.perBankRdBursts::9           466293                       # Per bank write bursts
system.mem_ctrls1.perBankRdBursts::10          447534                       # Per bank write bursts
system.mem_ctrls1.perBankRdBursts::11          447229                       # Per bank write bursts
system.mem_ctrls1.perBankRdBursts::12          445641                       # Per bank write bursts
system.mem_ctrls1.perBankRdBursts::13          461803                       # Per bank write bursts
system.mem_ctrls1.perBankRdBursts::14          465706                       # Per bank write bursts
system.mem_ctrls1.perBankRdBursts::15          456439                       # Per bank write bursts
system.mem_ctrls1.perBankWrBursts::0           191208                       # Per bank write bursts
system.mem_ctrls1.perBankWrBursts::1           189170                       # Per bank write bursts
system.mem_ctrls1.perBankWrBursts::2           191970                       # Per bank write bursts
system.mem_ctrls1.perBankWrBursts::3           186224                       # Per bank write bursts
system.mem_ctrls1.perBankWrBursts::4           186991                       # Per bank write bursts
system.mem_ctrls1.perBankWrBursts::5           191605                       # Per bank write bursts
system.mem_ctrls1.perBankWrBursts::6           199407                       # Per bank write bursts
system.mem_ctrls1.perBankWrBursts::7           194151                       # Per bank write bursts
system.mem_ctrls1.perBankWrBursts::8           203777                       # Per bank write bursts
system.mem_ctrls1.perBankWrBursts::9           189966                       # Per bank write bursts
system.mem_ctrls1.perBankWrBursts::10          191206                       # Per bank write bursts
system.mem_ctrls1.perBankWrBursts::11          189253                       # Per bank write bursts
system.mem_ctrls1.perBankWrBursts::12          184671                       # Per bank write bursts
system.mem_ctrls1.perBankWrBursts::13          191879                       # Per bank write bursts
system.mem_ctrls1.perBankWrBursts::14          195156                       # Per bank write bursts
system.mem_ctrls1.perBankWrBursts::15          191684                       # Per bank write bursts
system.mem_ctrls1.numRdRetry                        0                       # Number of times read queue was full causing retry
system.mem_ctrls1.numWrRetry                        0                       # Number of times write queue was full causing retry
system.mem_ctrls1.totGap                 3635529883947                       # Total gap between requests
system.mem_ctrls1.readPktSize::0                    0                       # Read request sizes (log2)
system.mem_ctrls1.readPktSize::1                    0                       # Read request sizes (log2)
system.mem_ctrls1.readPktSize::2                    0                       # Read request sizes (log2)
system.mem_ctrls1.readPktSize::3                    0                       # Read request sizes (log2)
system.mem_ctrls1.readPktSize::4                    0                       # Read request sizes (log2)
system.mem_ctrls1.readPktSize::5                    0                       # Read request sizes (log2)
system.mem_ctrls1.readPktSize::6              7362784                       # Read request sizes (log2)
system.mem_ctrls1.writePktSize::0                   0                       # Write request sizes (log2)
system.mem_ctrls1.writePktSize::1                   0                       # Write request sizes (log2)
system.mem_ctrls1.writePktSize::2                   0                       # Write request sizes (log2)
system.mem_ctrls1.writePktSize::3                   0                       # Write request sizes (log2)
system.mem_ctrls1.writePktSize::4                   0                       # Write request sizes (log2)
system.mem_ctrls1.writePktSize::5                   0                       # Write request sizes (log2)
system.mem_ctrls1.writePktSize::6             3068337                       # Write request sizes (log2)
system.mem_ctrls1.rdQLenPdf::0                7091974                       # What read queue length does an incoming req see
system.mem_ctrls1.rdQLenPdf::1                 237785                       # What read queue length does an incoming req see
system.mem_ctrls1.rdQLenPdf::2                  27256                       # What read queue length does an incoming req see
system.mem_ctrls1.rdQLenPdf::3                   1659                       # What read queue length does an incoming req see
system.mem_ctrls1.rdQLenPdf::4                      0                       # What read queue length does an incoming req see
system.mem_ctrls1.rdQLenPdf::5                      0                       # What read queue length does an incoming req see
system.mem_ctrls1.rdQLenPdf::6                      0                       # What read queue length does an incoming req see
system.mem_ctrls1.rdQLenPdf::7                      0                       # What read queue length does an incoming req see
system.mem_ctrls1.rdQLenPdf::8                      0                       # What read queue length does an incoming req see
system.mem_ctrls1.rdQLenPdf::9                      0                       # What read queue length does an incoming req see
system.mem_ctrls1.rdQLenPdf::10                     0                       # What read queue length does an incoming req see
system.mem_ctrls1.rdQLenPdf::11                     0                       # What read queue length does an incoming req see
system.mem_ctrls1.rdQLenPdf::12                     0                       # What read queue length does an incoming req see
system.mem_ctrls1.rdQLenPdf::13                     0                       # What read queue length does an incoming req see
system.mem_ctrls1.rdQLenPdf::14                     0                       # What read queue length does an incoming req see
system.mem_ctrls1.rdQLenPdf::15                     0                       # What read queue length does an incoming req see
system.mem_ctrls1.rdQLenPdf::16                     0                       # What read queue length does an incoming req see
system.mem_ctrls1.rdQLenPdf::17                     0                       # What read queue length does an incoming req see
system.mem_ctrls1.rdQLenPdf::18                     0                       # What read queue length does an incoming req see
system.mem_ctrls1.rdQLenPdf::19                     0                       # What read queue length does an incoming req see
system.mem_ctrls1.rdQLenPdf::20                     0                       # What read queue length does an incoming req see
system.mem_ctrls1.rdQLenPdf::21                     0                       # What read queue length does an incoming req see
system.mem_ctrls1.rdQLenPdf::22                     0                       # What read queue length does an incoming req see
system.mem_ctrls1.rdQLenPdf::23                     0                       # What read queue length does an incoming req see
system.mem_ctrls1.rdQLenPdf::24                     0                       # What read queue length does an incoming req see
system.mem_ctrls1.rdQLenPdf::25                     0                       # What read queue length does an incoming req see
system.mem_ctrls1.rdQLenPdf::26                     0                       # What read queue length does an incoming req see
system.mem_ctrls1.rdQLenPdf::27                     0                       # What read queue length does an incoming req see
system.mem_ctrls1.rdQLenPdf::28                     0                       # What read queue length does an incoming req see
system.mem_ctrls1.rdQLenPdf::29                     0                       # What read queue length does an incoming req see
system.mem_ctrls1.rdQLenPdf::30                     0                       # What read queue length does an incoming req see
system.mem_ctrls1.rdQLenPdf::31                     0                       # What read queue length does an incoming req see
system.mem_ctrls1.wrQLenPdf::0                      2                       # What write queue length does an incoming req see
system.mem_ctrls1.wrQLenPdf::1                      2                       # What write queue length does an incoming req see
system.mem_ctrls1.wrQLenPdf::2                      2                       # What write queue length does an incoming req see
system.mem_ctrls1.wrQLenPdf::3                      2                       # What write queue length does an incoming req see
system.mem_ctrls1.wrQLenPdf::4                      2                       # What write queue length does an incoming req see
system.mem_ctrls1.wrQLenPdf::5                      2                       # What write queue length does an incoming req see
system.mem_ctrls1.wrQLenPdf::6                      2                       # What write queue length does an incoming req see
system.mem_ctrls1.wrQLenPdf::7                      2                       # What write queue length does an incoming req see
system.mem_ctrls1.wrQLenPdf::8                      2                       # What write queue length does an incoming req see
system.mem_ctrls1.wrQLenPdf::9                      2                       # What write queue length does an incoming req see
system.mem_ctrls1.wrQLenPdf::10                     2                       # What write queue length does an incoming req see
system.mem_ctrls1.wrQLenPdf::11                     2                       # What write queue length does an incoming req see
system.mem_ctrls1.wrQLenPdf::12                     2                       # What write queue length does an incoming req see
system.mem_ctrls1.wrQLenPdf::13                     2                       # What write queue length does an incoming req see
system.mem_ctrls1.wrQLenPdf::14                     2                       # What write queue length does an incoming req see
system.mem_ctrls1.wrQLenPdf::15                150785                       # What write queue length does an incoming req see
system.mem_ctrls1.wrQLenPdf::16                155523                       # What write queue length does an incoming req see
system.mem_ctrls1.wrQLenPdf::17                171556                       # What write queue length does an incoming req see
system.mem_ctrls1.wrQLenPdf::18                172417                       # What write queue length does an incoming req see
system.mem_ctrls1.wrQLenPdf::19                172468                       # What write queue length does an incoming req see
system.mem_ctrls1.wrQLenPdf::20                172479                       # What write queue length does an incoming req see
system.mem_ctrls1.wrQLenPdf::21                172518                       # What write queue length does an incoming req see
system.mem_ctrls1.wrQLenPdf::22                172817                       # What write queue length does an incoming req see
system.mem_ctrls1.wrQLenPdf::23                174394                       # What write queue length does an incoming req see
system.mem_ctrls1.wrQLenPdf::24                172706                       # What write queue length does an incoming req see
system.mem_ctrls1.wrQLenPdf::25                172503                       # What write queue length does an incoming req see
system.mem_ctrls1.wrQLenPdf::26                172442                       # What write queue length does an incoming req see
system.mem_ctrls1.wrQLenPdf::27                172438                       # What write queue length does an incoming req see
system.mem_ctrls1.wrQLenPdf::28                172454                       # What write queue length does an incoming req see
system.mem_ctrls1.wrQLenPdf::29                172675                       # What write queue length does an incoming req see
system.mem_ctrls1.wrQLenPdf::30                173623                       # What write queue length does an incoming req see
system.mem_ctrls1.wrQLenPdf::31                172243                       # What write queue length does an incoming req see
system.mem_ctrls1.wrQLenPdf::32                172216                       # What write queue length does an incoming req see
system.mem_ctrls1.wrQLenPdf::33                    47                       # What write queue length does an incoming req see
system.mem_ctrls1.wrQLenPdf::34                     3                       # What write queue length does an incoming req see
system.mem_ctrls1.wrQLenPdf::35                     0                       # What write queue length does an incoming req see
system.mem_ctrls1.wrQLenPdf::36                     0                       # What write queue length does an incoming req see
system.mem_ctrls1.wrQLenPdf::37                     0                       # What write queue length does an incoming req see
system.mem_ctrls1.wrQLenPdf::38                     0                       # What write queue length does an incoming req see
system.mem_ctrls1.wrQLenPdf::39                     0                       # What write queue length does an incoming req see
system.mem_ctrls1.wrQLenPdf::40                     0                       # What write queue length does an incoming req see
system.mem_ctrls1.wrQLenPdf::41                     0                       # What write queue length does an incoming req see
system.mem_ctrls1.wrQLenPdf::42                     0                       # What write queue length does an incoming req see
system.mem_ctrls1.wrQLenPdf::43                     0                       # What write queue length does an incoming req see
system.mem_ctrls1.wrQLenPdf::44                     0                       # What write queue length does an incoming req see
system.mem_ctrls1.wrQLenPdf::45                     0                       # What write queue length does an incoming req see
system.mem_ctrls1.wrQLenPdf::46                     0                       # What write queue length does an incoming req see
system.mem_ctrls1.wrQLenPdf::47                     0                       # What write queue length does an incoming req see
system.mem_ctrls1.wrQLenPdf::48                     0                       # What write queue length does an incoming req see
system.mem_ctrls1.wrQLenPdf::49                     0                       # What write queue length does an incoming req see
system.mem_ctrls1.wrQLenPdf::50                     0                       # What write queue length does an incoming req see
system.mem_ctrls1.wrQLenPdf::51                     0                       # What write queue length does an incoming req see
system.mem_ctrls1.wrQLenPdf::52                     0                       # What write queue length does an incoming req see
system.mem_ctrls1.wrQLenPdf::53                     0                       # What write queue length does an incoming req see
system.mem_ctrls1.wrQLenPdf::54                     0                       # What write queue length does an incoming req see
system.mem_ctrls1.wrQLenPdf::55                     0                       # What write queue length does an incoming req see
system.mem_ctrls1.wrQLenPdf::56                     0                       # What write queue length does an incoming req see
system.mem_ctrls1.wrQLenPdf::57                     0                       # What write queue length does an incoming req see
system.mem_ctrls1.wrQLenPdf::58                     0                       # What write queue length does an incoming req see
system.mem_ctrls1.wrQLenPdf::59                     0                       # What write queue length does an incoming req see
system.mem_ctrls1.wrQLenPdf::60                     0                       # What write queue length does an incoming req see
system.mem_ctrls1.wrQLenPdf::61                     0                       # What write queue length does an incoming req see
system.mem_ctrls1.wrQLenPdf::62                     0                       # What write queue length does an incoming req see
system.mem_ctrls1.wrQLenPdf::63                     0                       # What write queue length does an incoming req see
system.mem_ctrls1.bytesPerActivate::samples      6724497                       # Bytes accessed per row activation
system.mem_ctrls1.bytesPerActivate::mean    99.238209                       # Bytes accessed per row activation
system.mem_ctrls1.bytesPerActivate::gmean    82.703566                       # Bytes accessed per row activation
system.mem_ctrls1.bytesPerActivate::stdev    88.206860                       # Bytes accessed per row activation
system.mem_ctrls1.bytesPerActivate::0-127      5104298     75.91%     75.91% # Bytes accessed per row activation
system.mem_ctrls1.bytesPerActivate::128-255      1162669     17.29%     93.20% # Bytes accessed per row activation
system.mem_ctrls1.bytesPerActivate::256-383       259970      3.87%     97.06% # Bytes accessed per row activation
system.mem_ctrls1.bytesPerActivate::384-511       114465      1.70%     98.76% # Bytes accessed per row activation
system.mem_ctrls1.bytesPerActivate::512-639        53980      0.80%     99.57% # Bytes accessed per row activation
system.mem_ctrls1.bytesPerActivate::640-767        18663      0.28%     99.84% # Bytes accessed per row activation
system.mem_ctrls1.bytesPerActivate::768-895         6179      0.09%     99.94% # Bytes accessed per row activation
system.mem_ctrls1.bytesPerActivate::896-1023         2493      0.04%     99.97% # Bytes accessed per row activation
system.mem_ctrls1.bytesPerActivate::1024-1151         1780      0.03%    100.00% # Bytes accessed per row activation
system.mem_ctrls1.bytesPerActivate::total      6724497                       # Bytes accessed per row activation
system.mem_ctrls1.rdPerTurnAround::samples       172213                       # Reads before turning the bus around for writes
system.mem_ctrls1.rdPerTurnAround::mean     42.730015                       # Reads before turning the bus around for writes
system.mem_ctrls1.rdPerTurnAround::gmean    41.084451                       # Reads before turning the bus around for writes
system.mem_ctrls1.rdPerTurnAround::stdev    59.727616                       # Reads before turning the bus around for writes
system.mem_ctrls1.rdPerTurnAround::0-1023       172211    100.00%    100.00% # Reads before turning the bus around for writes
system.mem_ctrls1.rdPerTurnAround::1024-2047            1      0.00%    100.00% # Reads before turning the bus around for writes
system.mem_ctrls1.rdPerTurnAround::23552-24575            1      0.00%    100.00% # Reads before turning the bus around for writes
system.mem_ctrls1.rdPerTurnAround::total       172213                       # Reads before turning the bus around for writes
system.mem_ctrls1.wrPerTurnAround::samples       172213                       # Writes before turning the bus around for reads
system.mem_ctrls1.wrPerTurnAround::mean     17.816994                       # Writes before turning the bus around for reads
system.mem_ctrls1.wrPerTurnAround::gmean    17.804663                       # Writes before turning the bus around for reads
system.mem_ctrls1.wrPerTurnAround::stdev     0.646672                       # Writes before turning the bus around for reads
system.mem_ctrls1.wrPerTurnAround::16           16690      9.69%      9.69% # Writes before turning the bus around for reads
system.mem_ctrls1.wrPerTurnAround::17            4281      2.49%     12.18% # Writes before turning the bus around for reads
system.mem_ctrls1.wrPerTurnAround::18          145378     84.42%     96.59% # Writes before turning the bus around for reads
system.mem_ctrls1.wrPerTurnAround::19            5599      3.25%     99.85% # Writes before turning the bus around for reads
system.mem_ctrls1.wrPerTurnAround::20             251      0.15%     99.99% # Writes before turning the bus around for reads
system.mem_ctrls1.wrPerTurnAround::21              12      0.01%    100.00% # Writes before turning the bus around for reads
system.mem_ctrls1.wrPerTurnAround::22               2      0.00%    100.00% # Writes before turning the bus around for reads
system.mem_ctrls1.wrPerTurnAround::total       172213                       # Writes before turning the bus around for reads
system.mem_ctrls1.totQLat                157169341025                       # Total ticks spent queuing
system.mem_ctrls1.totMemAccLat           295144478525                       # Total ticks spent from burst creation until serviced by the DRAM
system.mem_ctrls1.totBusLat               36793370000                       # Total ticks spent in databus transfers
system.mem_ctrls1.avgQLat                    21358.38                       # Average queueing delay per DRAM burst
system.mem_ctrls1.avgBusLat                   5000.00                       # Average bus latency per DRAM burst
system.mem_ctrls1.avgMemAccLat               40108.38                       # Average memory access latency per DRAM burst
system.mem_ctrls1.avgRdBW                      129.54                       # Average DRAM read bandwidth in MiByte/s
system.mem_ctrls1.avgWrBW                       54.01                       # Average achieved write bandwidth in MiByte/s
system.mem_ctrls1.avgRdBWSys                   129.61                       # Average system read bandwidth in MiByte/s
system.mem_ctrls1.avgWrBWSys                    54.02                       # Average system write bandwidth in MiByte/s
system.mem_ctrls1.peakBW                     12800.00                       # Theoretical peak bandwidth in MiByte/s
system.mem_ctrls1.busUtil                        1.43                       # Data bus utilization in percentage
system.mem_ctrls1.busUtilRead                    1.01                       # Data bus utilization in percentage for reads
system.mem_ctrls1.busUtilWrite                   0.42                       # Data bus utilization in percentage for writes
system.mem_ctrls1.avgRdQLen                      1.02                       # Average read queue length when enqueuing
system.mem_ctrls1.avgWrQLen                     24.53                       # Average write queue length when enqueuing
system.mem_ctrls1.readRowHits                 3653144                       # Number of row buffer hits during reads
system.mem_ctrls1.writeRowHits                  49346                       # Number of row buffer hits during writes
system.mem_ctrls1.readRowHitRate                49.64                       # Row buffer hit rate for reads
system.mem_ctrls1.writeRowHitRate                1.61                       # Row buffer hit rate for writes
system.mem_ctrls1.avgGap                    348527.25                       # Average gap between requests
system.mem_ctrls1.pageHitRate                   35.51                       # Row buffer hit rate, read and write combined
system.mem_ctrls1_0.actEnergy             23984016840                       # Energy for activate commands per rank (pJ)
system.mem_ctrls1_0.preEnergy             12747795885                       # Energy for precharge commands per rank (pJ)
system.mem_ctrls1_0.readEnergy            26289529980                       # Energy for read commands per rank (pJ)
system.mem_ctrls1_0.writeEnergy            7990389720                       # Energy for write commands per rank (pJ)
system.mem_ctrls1_0.refreshEnergy        288882029280.000061                       # Energy for refresh commands per rank (pJ)
system.mem_ctrls1_0.actBackEnergy        190888165260                       # Energy for active background per rank (pJ)
system.mem_ctrls1_0.preBackEnergy          7231294080                       # Energy for precharge background per rank (pJ)
system.mem_ctrls1_0.actPowerDownEnergy   1199612773410                       # Energy for active power-down per rank (pJ)
system.mem_ctrls1_0.prePowerDownEnergy   197722261920                       # Energy for precharge power-down per rank (pJ)
system.mem_ctrls1_0.selfRefreshEnergy     18425160285                       # Energy for self refresh per rank (pJ)
system.mem_ctrls1_0.totalEnergy          1973817017550                       # Total energy per rank (pJ)
system.mem_ctrls1_0.averagePower           542.924095                       # Core power per rank (mW)
system.mem_ctrls1_0.totalIdleTime        3197985803949                       # Total Idle time Per DRAM Rank
system.mem_ctrls1_0.memoryStateTime::IDLE   5447625231                       # Time in different power states
system.mem_ctrls1_0.memoryStateTime::REF 122268332000                       # Time in different power states
system.mem_ctrls1_0.memoryStateTime::SREF  52355854466                       # Time in different power states
system.mem_ctrls1_0.memoryStateTime::PRE_PDN 514902084564                       # Time in different power states
system.mem_ctrls1_0.memoryStateTime::ACT 309827223442                       # Time in different power states
system.mem_ctrls1_0.memoryStateTime::ACT_PDN 2630729195479                       # Time in different power states
system.mem_ctrls1_1.actEnergy             24028927440                       # Energy for activate commands per rank (pJ)
system.mem_ctrls1_1.preEnergy             12771670230                       # Energy for precharge commands per rank (pJ)
system.mem_ctrls1_1.readEnergy            26251402380                       # Energy for read commands per rank (pJ)
system.mem_ctrls1_1.writeEnergy            8026230240                       # Energy for write commands per rank (pJ)
system.mem_ctrls1_1.refreshEnergy        288874653600.000061                       # Energy for refresh commands per rank (pJ)
system.mem_ctrls1_1.actBackEnergy        191259286560                       # Energy for active background per rank (pJ)
system.mem_ctrls1_1.preBackEnergy          7259063520                       # Energy for precharge background per rank (pJ)
system.mem_ctrls1_1.actPowerDownEnergy   1195780986030                       # Energy for active power-down per rank (pJ)
system.mem_ctrls1_1.prePowerDownEnergy   199396852800                       # Energy for precharge power-down per rank (pJ)
system.mem_ctrls1_1.selfRefreshEnergy     19416016785                       # Energy for self refresh per rank (pJ)
system.mem_ctrls1_1.totalEnergy          1973112615285                       # Total energy per rank (pJ)
system.mem_ctrls1_1.averagePower           542.730340                       # Core power per rank (mW)
system.mem_ctrls1_1.totalIdleTime        3197097653200                       # Total Idle time Per DRAM Rank
system.mem_ctrls1_1.memoryStateTime::IDLE   5564789742                       # Time in different power states
system.mem_ctrls1_1.memoryStateTime::REF 122267342000                       # Time in different power states
system.mem_ctrls1_1.memoryStateTime::SREF  55503294445                       # Time in different power states
system.mem_ctrls1_1.memoryStateTime::PRE_PDN 519263017770                       # Time in different power states
system.mem_ctrls1_1.memoryStateTime::ACT 310600074235                       # Time in different power states
system.mem_ctrls1_1.memoryStateTime::ACT_PDN 2622331796990                       # Time in different power states
system.pwrStateResidencyTicks::UNDEFINED 130588526839914                       # Cumulative time (in ticks) in various power states
system.cpu.branchPred.lookups                       3                       # Number of BP lookups
system.cpu.branchPred.condPredicted                 3                       # Number of conditional branches predicted
system.cpu.branchPred.condIncorrect                 1                       # Number of conditional branches incorrect
system.cpu.branchPred.BTBLookups                    0                       # Number of BTB lookups
system.cpu.branchPred.BTBHits                       0                       # Number of BTB hits
system.cpu.branchPred.BTBCorrect                    0                       # Number of correct BTB predictions (this stat may not work properly.
system.cpu.branchPred.BTBHitPct                   nan                       # BTB Hit Percentage
system.cpu.branchPred.usedRAS                       0                       # Number of times the RAS was used to get a target.
system.cpu.branchPred.RASInCorrect                  0                       # Number of incorrect RAS predictions.
system.cpu.branchPred.indirectLookups               0                       # Number of indirect predictor lookups.
system.cpu.branchPred.indirectHits                  0                       # Number of indirect target hits.
system.cpu.branchPred.indirectMisses                0                       # Number of indirect misses.
system.cpu.branchPredindirectMispredicted            0                       # Number of mispredicted indirect branches.
system.cpu_voltage_domain.voltage                   1                       # Voltage in Volts
system.cpu_clk_domain.clock                       333                       # Clock period in ticks
system.cpu.dtb.fetch_hits                           0                       # ITB hits
system.cpu.dtb.fetch_misses                         0                       # ITB misses
system.cpu.dtb.fetch_acv                            0                       # ITB acv
system.cpu.dtb.fetch_accesses                       0                       # ITB accesses
system.cpu.dtb.read_hits                            2                       # DTB read hits
system.cpu.dtb.read_misses                          0                       # DTB read misses
system.cpu.dtb.read_acv                             0                       # DTB read access violations
system.cpu.dtb.read_accesses                        2                       # DTB read accesses
system.cpu.dtb.write_hits                           0                       # DTB write hits
system.cpu.dtb.write_misses                         0                       # DTB write misses
system.cpu.dtb.write_acv                            0                       # DTB write access violations
system.cpu.dtb.write_accesses                       0                       # DTB write accesses
system.cpu.dtb.data_hits                            2                       # DTB hits
system.cpu.dtb.data_misses                          0                       # DTB misses
system.cpu.dtb.data_acv                             0                       # DTB access violations
system.cpu.dtb.data_accesses                        2                       # DTB accesses
system.cpu.itb.fetch_hits                           3                       # ITB hits
system.cpu.itb.fetch_misses                         0                       # ITB misses
system.cpu.itb.fetch_acv                            0                       # ITB acv
system.cpu.itb.fetch_accesses                       3                       # ITB accesses
system.cpu.itb.read_hits                            0                       # DTB read hits
system.cpu.itb.read_misses                          0                       # DTB read misses
system.cpu.itb.read_acv                             0                       # DTB read access violations
system.cpu.itb.read_accesses                        0                       # DTB read accesses
system.cpu.itb.write_hits                           0                       # DTB write hits
system.cpu.itb.write_misses                         0                       # DTB write misses
system.cpu.itb.write_acv                            0                       # DTB write access violations
system.cpu.itb.write_accesses                       0                       # DTB write accesses
system.cpu.itb.data_hits                            0                       # DTB hits
system.cpu.itb.data_misses                          0                       # DTB misses
system.cpu.itb.data_acv                             0                       # DTB access violations
system.cpu.itb.data_accesses                        0                       # DTB accesses
system.cpu.workload.num_syscalls                    0                       # Number of system calls
system.cpu.pwrStateResidencyTicks::ON    3635530315182                       # Cumulative time (in ticks) in various power states
system.cpu.numCycles                              493                       # number of cpu cycles simulated
system.cpu.numWorkItemsStarted                      0                       # number of work items this cpu started
system.cpu.numWorkItemsCompleted                    0                       # number of work items this cpu completed
system.cpu.fetch.icacheStallCycles                 19                       # Number of cycles fetch is stalled on an Icache miss
system.cpu.fetch.Insts                              9                       # Number of instructions fetch has processed
system.cpu.fetch.Branches                           3                       # Number of branches that fetch encountered
system.cpu.fetch.Cycles                             2                       # Number of cycles fetch has run and was not squashing or blocked
system.cpu.fetch.SquashCycles                       5                       # Number of cycles fetch has spent squashing
system.cpu.fetch.PendingDrainCycles                 3                       # Number of cycles fetch has spent waiting on pipes to drain
system.cpu.fetch.CacheLines                         3                       # Number of cache lines fetched
system.cpu.fetch.IcacheSquashes                     2                       # Number of outstanding Icache misses that were squashed
system.cpu.fetch.rateDist::samples                 26                       # Number of instructions fetched each cycle (Total)
system.cpu.fetch.rateDist::mean              0.346154                       # Number of instructions fetched each cycle (Total)
system.cpu.fetch.rateDist::stdev             1.573336                       # Number of instructions fetched each cycle (Total)
system.cpu.fetch.rateDist::underflows               0      0.00%      0.00% # Number of instructions fetched each cycle (Total)
system.cpu.fetch.rateDist::0                       24     92.31%     92.31% # Number of instructions fetched each cycle (Total)
system.cpu.fetch.rateDist::1                        1      3.85%     96.15% # Number of instructions fetched each cycle (Total)
system.cpu.fetch.rateDist::2                        0      0.00%     96.15% # Number of instructions fetched each cycle (Total)
system.cpu.fetch.rateDist::3                        0      0.00%     96.15% # Number of instructions fetched each cycle (Total)
system.cpu.fetch.rateDist::4                        0      0.00%     96.15% # Number of instructions fetched each cycle (Total)
system.cpu.fetch.rateDist::5                        0      0.00%     96.15% # Number of instructions fetched each cycle (Total)
system.cpu.fetch.rateDist::6                        0      0.00%     96.15% # Number of instructions fetched each cycle (Total)
system.cpu.fetch.rateDist::7                        0      0.00%     96.15% # Number of instructions fetched each cycle (Total)
system.cpu.fetch.rateDist::8                        1      3.85%    100.00% # Number of instructions fetched each cycle (Total)
system.cpu.fetch.rateDist::overflows                0      0.00%    100.00% # Number of instructions fetched each cycle (Total)
system.cpu.fetch.rateDist::min_value                0                       # Number of instructions fetched each cycle (Total)
system.cpu.fetch.rateDist::max_value                8                       # Number of instructions fetched each cycle (Total)
system.cpu.fetch.rateDist::total                   26                       # Number of instructions fetched each cycle (Total)
system.cpu.fetch.branchRate                  0.006085                       # Number of branch fetches per cycle
system.cpu.fetch.rate                        0.018256                       # Number of inst fetches per cycle
system.cpu.decode.IdleCycles                       21                       # Number of cycles decode is idle
[...]
system.switch_cpus_1.iq.int_inst_queue_wakeup_accesses    321128188                       # Number of integer instruction queue wakeup accesses
system.switch_cpus_1.iq.fp_inst_queue_reads     69889402                       # Number of floating instruction queue reads
system.switch_cpus_1.iq.fp_inst_queue_writes    112213972                       # Number of floating instruction queue writes
system.switch_cpus_1.iq.fp_inst_queue_wakeup_accesses     28772306                       # Number of floating instruction queue wakeup accesses
system.switch_cpus_1.iq.int_alu_accesses    352016682                       # Number of integer alu accesses
system.switch_cpus_1.iq.fp_alu_accesses      35144336                       # Number of floating point alu accesses
system.switch_cpus_1.iew.lsq.thread0.forwLoads      9402272                       # Number of loads that had data forwarded from stores
system.switch_cpus_1.iew.lsq.thread0.invAddrLoads            0                       # Number of loads ignored due to an invalid address
system.switch_cpus_1.iew.lsq.thread0.squashedLoads     68323269                       # Number of loads squashed
system.switch_cpus_1.iew.lsq.thread0.ignoredResponses        27057                       # Number of memory responses ignored because the instruction is squashed
system.switch_cpus_1.iew.lsq.thread0.memOrderViolation        11221                       # Number of memory ordering violations
system.switch_cpus_1.iew.lsq.thread0.squashedStores     29616767                       # Number of stores squashed
system.switch_cpus_1.iew.lsq.thread0.invAddrSwpfs            0                       # Number of software prefetches ignored due to an invalid address
system.switch_cpus_1.iew.lsq.thread0.blockedLoads            0                       # Number of blocked loads due to partial load-store forwarding
system.switch_cpus_1.iew.lsq.thread0.rescheduledLoads          409                       # Number of loads that were rescheduled
system.switch_cpus_1.iew.lsq.thread0.cacheBlocked      2797734                       # Number of times an access to memory failed due to the cache being blocked
system.switch_cpus_1.iew.iewIdleCycles              0                       # Number of cycles IEW is idle
system.switch_cpus_1.iew.iewSquashCycles      3816635                       # Number of cycles IEW is squashing
system.switch_cpus_1.iew.iewBlockCycles     261111509                       # Number of cycles IEW is blocking
system.switch_cpus_1.iew.iewUnblockCycles    151410336                       # Number of cycles IEW is unblocking
system.switch_cpus_1.iew.iewDispatchedInsts    487896519                       # Number of instructions dispatched to IQ
system.switch_cpus_1.iew.iewDispSquashedInsts       130949                       # Number of squashed instructions skipped by dispatch
system.switch_cpus_1.iew.iewDispLoadInsts    116050525                       # Number of dispatched load instructions
system.switch_cpus_1.iew.iewDispStoreInsts     58845594                       # Number of dispatched store instructions
system.switch_cpus_1.iew.iewDispNonSpecInsts       528881                       # Number of dispatched non-speculative instructions
system.switch_cpus_1.iew.iewIQFullEvents      1301791                       # Number of times the IQ has become full, causing a stall
system.switch_cpus_1.iew.iewLSQFullEvents    149825973                       # Number of times the LSQ has become full, causing a stall
system.switch_cpus_1.iew.memOrderViolationEvents        11221                       # Number of memory order violations
system.switch_cpus_1.iew.predictedTakenIncorrect       757373                       # Number of branches that were predicted taken incorrectly
system.switch_cpus_1.iew.predictedNotTakenIncorrect      1145960                       # Number of branches that were predicted not taken incorrectly
system.switch_cpus_1.iew.branchMispredicts      1903333                       # Number of branch mispredicts detected at execute
system.switch_cpus_1.iew.iewExecutedInsts    375935966                       # Number of executed instructions
system.switch_cpus_1.iew.iewExecLoadInsts    102838001                       # Number of load instructions executed
system.switch_cpus_1.iew.iewExecSquashedInsts      4132570                       # Number of squashed instructions skipped in execute
system.switch_cpus_1.iew.exec_swp                   0                       # number of swp insts executed
system.switch_cpus_1.iew.exec_nop            23251442                       # number of nop insts executed
system.switch_cpus_1.iew.exec_refs          155206881                       # number of memory reference insts executed
system.switch_cpus_1.iew.exec_branches       72647013                       # Number of branches executed
system.switch_cpus_1.iew.exec_stores         52368880                       # Number of stores executed
system.switch_cpus_1.iew.exec_rate           0.353980                       # Inst execution rate
system.switch_cpus_1.iew.wb_sent            370419273                       # cumulative count of insts sent to commit
system.switch_cpus_1.iew.wb_count           349900494                       # cumulative count of insts written-back
system.switch_cpus_1.iew.wb_producers       177135614                       # num instructions producing a value
system.switch_cpus_1.iew.wb_consumers       259928387                       # num instructions consuming a value
system.switch_cpus_1.iew.wb_rate             0.329465                       # insts written-back per cycle
system.switch_cpus_1.iew.wb_fanout           0.681479                       # average fanout of values written-back
system.switch_cpus_1.commit.commitSquashedInsts    231594949                       # The number of squashed insts skipped by commit
system.switch_cpus_1.commit.commitNonSpecStalls       665598                       # The number of times commit has been forced to stall to communicate backwards
system.switch_cpus_1.commit.branchMispredicts      1463117                       # The number of times a branch was mispredicted
system.switch_cpus_1.commit.committed_per_cycle::samples   1027095570                       # Number of insts commited each cycle
system.switch_cpus_1.commit.committed_per_cycle::mean     0.207960                       # Number of insts commited each cycle
system.switch_cpus_1.commit.committed_per_cycle::stdev     1.113662                       # Number of insts commited each cycle
system.switch_cpus_1.commit.committed_per_cycle::underflows            0      0.00%      0.00% # Number of insts commited each cycle
system.switch_cpus_1.commit.committed_per_cycle::0    972955611     94.73%     94.73% # Number of insts commited each cycle
system.switch_cpus_1.commit.committed_per_cycle::1     19846029      1.93%     96.66% # Number of insts commited each cycle
system.switch_cpus_1.commit.committed_per_cycle::2      5995599      0.58%     97.24% # Number of insts commited each cycle
system.switch_cpus_1.commit.committed_per_cycle::3      3717664      0.36%     97.61% # Number of insts commited each cycle
system.switch_cpus_1.commit.committed_per_cycle::4      3283591      0.32%     97.93% # Number of insts commited each cycle
system.switch_cpus_1.commit.committed_per_cycle::5      2537000      0.25%     98.17% # Number of insts commited each cycle
system.switch_cpus_1.commit.committed_per_cycle::6      1904357      0.19%     98.36% # Number of insts commited each cycle
system.switch_cpus_1.commit.committed_per_cycle::7      1487067      0.14%     98.50% # Number of insts commited each cycle
system.switch_cpus_1.commit.committed_per_cycle::8     15368652      1.50%    100.00% # Number of insts commited each cycle
system.switch_cpus_1.commit.committed_per_cycle::overflows            0      0.00%    100.00% # Number of insts commited each cycle
system.switch_cpus_1.commit.committed_per_cycle::min_value            0                       # Number of insts commited each cycle
system.switch_cpus_1.commit.committed_per_cycle::max_value            8                       # Number of insts commited each cycle
system.switch_cpus_1.commit.committed_per_cycle::total   1027095570                       # Number of insts commited each cycle
system.switch_cpus_1.commit.committedInsts    213594410                       # Number of instructions committed
system.switch_cpus_1.commit.committedOps    213594410                       # Number of ops (including micro ops) committed
system.switch_cpus_1.commit.swp_count               0                       # Number of s/w prefetches committed
system.switch_cpus_1.commit.refs             76956073                       # Number of memory references committed
system.switch_cpus_1.commit.loads            47727246                       # Number of loads committed
system.switch_cpus_1.commit.membars            332799                       # Number of memory barriers committed
system.switch_cpus_1.commit.branches         42872050                       # Number of branches committed
system.switch_cpus_1.commit.fp_insts         19258208                       # Number of committed floating point instructions.
system.switch_cpus_1.commit.int_insts       185197309                       # Number of committed integer instructions.
system.switch_cpus_1.commit.function_calls      6276853                       # Number of function calls committed.
system.switch_cpus_1.commit.op_class_0::No_OpClass     13768422      6.45%      6.45% # Class of committed instruction
system.switch_cpus_1.commit.op_class_0::IntAlu    110964867     51.95%     58.40% # Class of committed instruction
system.switch_cpus_1.commit.op_class_0::IntMult        87084      0.04%     58.44% # Class of committed instruction
system.switch_cpus_1.commit.op_class_0::IntDiv            0      0.00%     58.44% # Class of committed instruction
system.switch_cpus_1.commit.op_class_0::FloatAdd      6284834      2.94%     61.38% # Class of committed instruction
system.switch_cpus_1.commit.op_class_0::FloatCmp      4706081      2.20%     63.58% # Class of committed instruction
system.switch_cpus_1.commit.op_class_0::FloatCvt       352967      0.17%     63.75% # Class of committed instruction
system.switch_cpus_1.commit.op_class_0::FloatMult        54220      0.03%     63.77% # Class of committed instruction
system.switch_cpus_1.commit.op_class_0::FloatMultAcc            0      0.00%     63.77% # Class of committed instruction
system.switch_cpus_1.commit.op_class_0::FloatDiv        87048      0.04%     63.82% # Class of committed instruction
system.switch_cpus_1.commit.op_class_0::FloatMisc            0      0.00%     63.82% # Class of committed instruction
system.switch_cpus_1.commit.op_class_0::FloatSqrt           15      0.00%     63.82% # Class of committed instruction
system.switch_cpus_1.commit.op_class_0::SimdAdd            0      0.00%     63.82% # Class of committed instruction
system.switch_cpus_1.commit.op_class_0::SimdAddAcc            0      0.00%     63.82% # Class of committed instruction
system.switch_cpus_1.commit.op_class_0::SimdAlu            0      0.00%     63.82% # Class of committed instruction
system.switch_cpus_1.commit.op_class_0::SimdCmp            0      0.00%     63.82% # Class of committed instruction
system.switch_cpus_1.commit.op_class_0::SimdCvt            0      0.00%     63.82% # Class of committed instruction
system.switch_cpus_1.commit.op_class_0::SimdMisc            0      0.00%     63.82% # Class of committed instruction
system.switch_cpus_1.commit.op_class_0::SimdMult            0      0.00%     63.82% # Class of committed instruction
system.switch_cpus_1.commit.op_class_0::SimdMultAcc            0      0.00%     63.82% # Class of committed instruction
system.switch_cpus_1.commit.op_class_0::SimdShift            0      0.00%     63.82% # Class of committed instruction
system.switch_cpus_1.commit.op_class_0::SimdShiftAcc            0      0.00%     63.82% # Class of committed instruction
system.switch_cpus_1.commit.op_class_0::SimdSqrt            0      0.00%     63.82% # Class of committed instruction
system.switch_cpus_1.commit.op_class_0::SimdFloatAdd            0      0.00%     63.82% # Class of committed instruction
system.switch_cpus_1.commit.op_class_0::SimdFloatAlu            0      0.00%     63.82% # Class of committed instruction
system.switch_cpus_1.commit.op_class_0::SimdFloatCmp            0      0.00%     63.82% # Class of committed instruction
system.switch_cpus_1.commit.op_class_0::SimdFloatCvt            0      0.00%     63.82% # Class of committed instruction
system.switch_cpus_1.commit.op_class_0::SimdFloatDiv            0      0.00%     63.82% # Class of committed instruction
system.switch_cpus_1.commit.op_class_0::SimdFloatMisc            0      0.00%     63.82% # Class of committed instruction
system.switch_cpus_1.commit.op_class_0::SimdFloatMult            0      0.00%     63.82% # Class of committed instruction
system.switch_cpus_1.commit.op_class_0::SimdFloatMultAcc            0      0.00%     63.82% # Class of committed instruction
system.switch_cpus_1.commit.op_class_0::SimdFloatSqrt            0      0.00%     63.82% # Class of committed instruction
system.switch_cpus_1.commit.op_class_0::MemRead     41999437     19.66%     83.48% # Class of committed instruction
system.switch_cpus_1.commit.op_class_0::MemWrite     27516392     12.88%     96.36% # Class of committed instruction
system.switch_cpus_1.commit.op_class_0::FloatMemRead      6060608      2.84%     99.20% # Class of committed instruction
system.switch_cpus_1.commit.op_class_0::FloatMemWrite      1712435      0.80%    100.00% # Class of committed instruction
system.switch_cpus_1.commit.op_class_0::IprAccess            0      0.00%    100.00% # Class of committed instruction
system.switch_cpus_1.commit.op_class_0::InstPrefetch            0      0.00%    100.00% # Class of committed instruction
system.switch_cpus_1.commit.op_class_0::total    213594410                       # Class of committed instruction
system.switch_cpus_1.commit.bw_lim_events     15368652                       # number cycles where commit BW limit reached
system.switch_cpus_1.rob.rob_reads         1426434930                       # The number of ROB reads
system.switch_cpus_1.rob.rob_writes         922433779                       # The number of ROB writes
system.switch_cpus_1.timesIdled                 23212                       # Number of times that the entire CPU went into an idle state and unscheduled itself
system.switch_cpus_1.idleCycles               2932810                       # Total number of cycles that the CPU has spent unscheduled due to idling
system.switch_cpus_1.committedInsts         200000000                       # Number of Instructions Simulated
system.switch_cpus_1.committedOps           200000000                       # Number of Ops (including micro ops) Simulated
system.switch_cpus_1.cpi                     5.310133                       # CPI: Cycles Per Instruction
system.switch_cpus_1.cpi_total               5.310133                       # CPI: Total CPI of All Threads
system.switch_cpus_1.ipc                     0.188319                       # IPC: Instructions Per Cycle
system.switch_cpus_1.ipc_total               0.188319                       # IPC: Total IPC of All Threads
system.switch_cpus_1.int_regfile_reads      476724743                       # number of integer regfile reads
system.switch_cpus_1.int_regfile_writes     219366155                       # number of integer regfile writes
system.switch_cpus_1.fp_regfile_reads        26333202                       # number of floating regfile reads
system.switch_cpus_1.fp_regfile_writes       19804613                       # number of floating regfile writes
system.switch_cpus_1.misc_regfile_reads        925632                       # number of misc regfile reads
system.switch_cpus_1.misc_regfile_writes       752604                       # number of misc regfile writes
system.tol3bus.snoop_filter.tot_requests     44293525                       # Total number of requests made to the snoop filter.
system.tol3bus.snoop_filter.hit_single_requests     22147113                       # Number of requests hitting in the snoop filter with a single holder of the requested data.
system.tol3bus.snoop_filter.hit_multi_requests            0                       # Number of requests hitting in the snoop filter with multiple (>1) holders of the requested data.
system.tol3bus.snoop_filter.tot_snoops         263239                       # Total number of snoops made to the snoop filter.
system.tol3bus.snoop_filter.hit_single_snoops       263239                       # Number of snoops hitting in the snoop filter with a single holder of the requested data.
system.tol3bus.snoop_filter.hit_multi_snoops            0                       # Number of snoops hitting in the snoop filter with multiple (>1) holders of the requested data.
system.tol3bus.pwrStateResidencyTicks::UNDEFINED 130588526839914                       # Cumulative time (in ticks) in various power states
system.tol3bus.trans_dist::ReadResp          18859023                       # Transaction distribution
system.tol3bus.trans_dist::WritebackDirty     17052948                       # Transaction distribution
system.tol3bus.trans_dist::CleanEvict        19838462                       # Transaction distribution
system.tol3bus.trans_dist::UpgradeReq            1896                       # Transaction distribution
system.tol3bus.trans_dist::UpgradeResp           1896                       # Transaction distribution
system.tol3bus.trans_dist::ReadExReq          3287389                       # Transaction distribution
system.tol3bus.trans_dist::ReadExResp         3287389                       # Transaction distribution
system.tol3bus.trans_dist::ReadSharedReq     18859023                       # Transaction distribution
system.tol3bus.pkt_count_system.cpu.l2.mem_side::system.l3.cpu_side     66441833                       # Packet count per connected master and slave (bytes)
system.tol3bus.pkt_size_system.cpu.l2.mem_side::system.l3.cpu_side   2115557760                       # Cumulative packet size per connected master and slave (bytes)
system.tol3bus.snoops                        14746193                       # Total snoops (count)
system.tol3bus.snoopTraffic                 393201280                       # Total snoop traffic (bytes)
system.tol3bus.snoop_fanout::samples         36894501                       # Request fanout histogram
system.tol3bus.snoop_fanout::mean            0.007135                       # Request fanout histogram
system.tol3bus.snoop_fanout::stdev           0.084167                       # Request fanout histogram
system.tol3bus.snoop_fanout::underflows             0      0.00%      0.00% # Request fanout histogram
system.tol3bus.snoop_fanout::0               36631262     99.29%     99.29% # Request fanout histogram
system.tol3bus.snoop_fanout::1                 263239      0.71%    100.00% # Request fanout histogram
system.tol3bus.snoop_fanout::overflows              0      0.00%    100.00% # Request fanout histogram
system.tol3bus.snoop_fanout::min_value              0                       # Request fanout histogram
system.tol3bus.snoop_fanout::max_value              1                       # Request fanout histogram
system.tol3bus.snoop_fanout::total           36894501                       # Request fanout histogram
system.tol3bus.reqLayer0.occupancy        18382500099                       # Layer occupancy (ticks)
system.tol3bus.reqLayer0.utilization              0.5                       # Layer utilization (%)
system.tol3bus.respLayer0.occupancy       14750141760                       # Layer occupancy (ticks)
system.tol3bus.respLayer0.utilization             0.4                       # Layer utilization (%)

---------- End Simulation Statistics   ----------
