
---------- Begin Simulation Statistics ----------
sim_seconds                                  1.069830                       # Number of seconds simulated
sim_ticks                                1069830137961                       # Number of ticks simulated
final_tick                               110830964345748                       # Number of ticks from beginning of simulation (restored from checkpoints and never reset)
sim_freq                                 1000000000000                       # Frequency of simulated ticks
host_inst_rate                                 596699                       # Simulator instruction rate (inst/s)
host_op_rate                                   596699                       # Simulator op (including micro ops) rate (op/s)
host_tick_rate                              531972195                       # Simulator tick rate (ticks/s)
host_mem_usage                                2381952                       # Number of bytes of host memory used
host_seconds                                  2011.06                       # Real time elapsed on the host
sim_insts                                  1200000011                       # Number of instructions simulated
sim_ops                                    1200000011                       # Number of ops (including micro ops) simulated
system.voltage_domain.voltage                       1                       # Voltage in Volts
system.clk_domain.clock                          1000                       # Clock period in ticks
system.mem_ctrls0.pwrStateResidencyTicks::UNDEFINED 110830964345748                       # Cumulative time (in ticks) in various power states
system.mem_ctrls0.bytes_read::cpu.inst             64                       # Number of bytes read from this memory
system.mem_ctrls0.bytes_read::switch_cpus.inst         3968                       # Number of bytes read from this memory
system.mem_ctrls0.bytes_read::switch_cpus.data      1020416                       # Number of bytes read from this memory
system.mem_ctrls0.bytes_read::switch_cpus_1.inst          512                       # Number of bytes read from this memory
system.mem_ctrls0.bytes_read::switch_cpus_1.data         6848                       # Number of bytes read from this memory
system.mem_ctrls0.bytes_read::total           1031808                       # Number of bytes read from this memory
system.mem_ctrls0.bytes_inst_read::cpu.inst           64                       # Number of instructions bytes read from this memory
system.mem_ctrls0.bytes_inst_read::switch_cpus.inst         3968                       # Number of instructions bytes read from this memory
system.mem_ctrls0.bytes_inst_read::switch_cpus_1.inst          512                       # Number of instructions bytes read from this memory
system.mem_ctrls0.bytes_inst_read::total         4544                       # Number of instructions bytes read from this memory
system.mem_ctrls0.num_reads::cpu.inst               1                       # Number of read requests responded to by this memory
system.mem_ctrls0.num_reads::switch_cpus.inst           62                       # Number of read requests responded to by this memory
system.mem_ctrls0.num_reads::switch_cpus.data        15944                       # Number of read requests responded to by this memory
system.mem_ctrls0.num_reads::switch_cpus_1.inst            8                       # Number of read requests responded to by this memory
system.mem_ctrls0.num_reads::switch_cpus_1.data          107                       # Number of read requests responded to by this memory
system.mem_ctrls0.num_reads::total              16122                       # Number of read requests responded to by this memory
system.mem_ctrls0.bw_read::cpu.inst                60                       # Total read bandwidth from this memory (bytes/s)
system.mem_ctrls0.bw_read::switch_cpus.inst         3709                       # Total read bandwidth from this memory (bytes/s)
system.mem_ctrls0.bw_read::switch_cpus.data       953811                       # Total read bandwidth from this memory (bytes/s)
system.mem_ctrls0.bw_read::switch_cpus_1.inst          479                       # Total read bandwidth from this memory (bytes/s)
system.mem_ctrls0.bw_read::switch_cpus_1.data         6401                       # Total read bandwidth from this memory (bytes/s)
system.mem_ctrls0.bw_read::total               964460                       # Total read bandwidth from this memory (bytes/s)
system.mem_ctrls0.bw_inst_read::cpu.inst           60                       # Instruction read bandwidth from this memory (bytes/s)
system.mem_ctrls0.bw_inst_read::switch_cpus.inst         3709                       # Instruction read bandwidth from this memory (bytes/s)
system.mem_ctrls0.bw_inst_read::switch_cpus_1.inst          479                       # Instruction read bandwidth from this memory (bytes/s)
system.mem_ctrls0.bw_inst_read::total            4247                       # Instruction read bandwidth from this memory (bytes/s)
system.mem_ctrls0.bw_total::cpu.inst               60                       # Total bandwidth to/from this memory (bytes/s)
system.mem_ctrls0.bw_total::switch_cpus.inst         3709                       # Total bandwidth to/from this memory (bytes/s)
system.mem_ctrls0.bw_total::switch_cpus.data       953811                       # Total bandwidth to/from this memory (bytes/s)
system.mem_ctrls0.bw_total::switch_cpus_1.inst          479                       # Total bandwidth to/from this memory (bytes/s)
system.mem_ctrls0.bw_total::switch_cpus_1.data         6401                       # Total bandwidth to/from this memory (bytes/s)
system.mem_ctrls0.bw_total::total              964460                       # Total bandwidth to/from this memory (bytes/s)
system.mem_ctrls0.readReqs                      16122                       # Number of read requests accepted
system.mem_ctrls0.writeReqs                         0                       # Number of write requests accepted
system.mem_ctrls0.readBursts                    16122                       # Number of DRAM read bursts, including those serviced by the write queue
system.mem_ctrls0.writeBursts                       0                       # Number of DRAM write bursts, including those merged in the write queue
system.mem_ctrls0.bytesReadDRAM               1031808                       # Total number of bytes read from DRAM
system.mem_ctrls0.bytesReadWrQ                      0                       # Total number of bytes read from write queue
system.mem_ctrls0.bytesWritten                      0                       # Total number of bytes written to DRAM
system.mem_ctrls0.bytesReadSys                1031808                       # Total read bytes from the system interface side
system.mem_ctrls0.bytesWrittenSys                   0                       # Total written bytes from the system interface side
system.mem_ctrls0.servicedByWrQ                     0                       # Number of DRAM read bursts serviced by the write queue
system.mem_ctrls0.mergedWrBursts                    0                       # Number of DRAM write bursts merged with an existing one
system.mem_ctrls0.neitherReadNorWriteReqs            0                       # Number of requests that are neither read nor write
system.mem_ctrls0.perBankRdBursts::0              962                       # Per bank write bursts
system.mem_ctrls0.perBankRdBursts::1             1021                       # Per bank write bursts
system.mem_ctrls0.perBankRdBursts::2              978                       # Per bank write bursts
system.mem_ctrls0.perBankRdBursts::3             1018                       # Per bank write bursts
system.mem_ctrls0.perBankRdBursts::4              976                       # Per bank write bursts
system.mem_ctrls0.perBankRdBursts::5             1084                       # Per bank write bursts
system.mem_ctrls0.perBankRdBursts::6             1123                       # Per bank write bursts
system.mem_ctrls0.perBankRdBursts::7             1030                       # Per bank write bursts
system.mem_ctrls0.perBankRdBursts::8             1077                       # Per bank write bursts
system.mem_ctrls0.perBankRdBursts::9              981                       # Per bank write bursts
system.mem_ctrls0.perBankRdBursts::10            1053                       # Per bank write bursts
system.mem_ctrls0.perBankRdBursts::11            1034                       # Per bank write bursts
system.mem_ctrls0.perBankRdBursts::12             855                       # Per bank write bursts
system.mem_ctrls0.perBankRdBursts::13             911                       # Per bank write bursts
system.mem_ctrls0.perBankRdBursts::14             997                       # Per bank write bursts
system.mem_ctrls0.perBankRdBursts::15            1022                       # Per bank write bursts
system.mem_ctrls0.perBankWrBursts::0                0                       # Per bank write bursts
system.mem_ctrls0.perBankWrBursts::1                0                       # Per bank write bursts
system.mem_ctrls0.perBankWrBursts::2                0                       # Per bank write bursts
system.mem_ctrls0.perBankWrBursts::3                0                       # Per bank write bursts
system.mem_ctrls0.perBankWrBursts::4                0                       # Per bank write bursts
system.mem_ctrls0.perBankWrBursts::5                0                       # Per bank write bursts
system.mem_ctrls0.perBankWrBursts::6                0                       # Per bank write bursts
system.mem_ctrls0.perBankWrBursts::7                0                       # Per bank write bursts
system.mem_ctrls0.perBankWrBursts::8                0                       # Per bank write bursts
system.mem_ctrls0.perBankWrBursts::9                0                       # Per bank write bursts
system.mem_ctrls0.perBankWrBursts::10               0                       # Per bank write bursts
system.mem_ctrls0.perBankWrBursts::11               0                       # Per bank write bursts
system.mem_ctrls0.perBankWrBursts::12               0                       # Per bank write bursts
system.mem_ctrls0.perBankWrBursts::13               0                       # Per bank write bursts
system.mem_ctrls0.perBankWrBursts::14               0                       # Per bank write bursts
system.mem_ctrls0.perBankWrBursts::15               0                       # Per bank write bursts
system.mem_ctrls0.numRdRetry                        0                       # Number of times read queue was full causing retry
system.mem_ctrls0.numWrRetry                        0                       # Number of times write queue was full causing retry
system.mem_ctrls0.totGap                 1055200374036                       # Total gap between requests
system.mem_ctrls0.readPktSize::0                    0                       # Read request sizes (log2)
system.mem_ctrls0.readPktSize::1                    0                       # Read request sizes (log2)
system.mem_ctrls0.readPktSize::2                    0                       # Read request sizes (log2)
system.mem_ctrls0.readPktSize::3                    0                       # Read request sizes (log2)
system.mem_ctrls0.readPktSize::4                    0                       # Read request sizes (log2)
system.mem_ctrls0.readPktSize::5                    0                       # Read request sizes (log2)
system.mem_ctrls0.readPktSize::6                16122                       # Read request sizes (log2)
system.mem_ctrls0.writePktSize::0                   0                       # Write request sizes (log2)
system.mem_ctrls0.writePktSize::1                   0                       # Write request sizes (log2)
system.mem_ctrls0.writePktSize::2                   0                       # Write request sizes (log2)
system.mem_ctrls0.writePktSize::3                   0                       # Write request sizes (log2)
system.mem_ctrls0.writePktSize::4                   0                       # Write request sizes (log2)
system.mem_ctrls0.writePktSize::5                   0                       # Write request sizes (log2)
system.mem_ctrls0.writePktSize::6                   0                       # Write request sizes (log2)
system.mem_ctrls0.rdQLenPdf::0                  16113                       # What read queue length does an incoming req see
system.mem_ctrls0.rdQLenPdf::1                      9                       # What read queue length does an incoming req see
system.mem_ctrls0.rdQLenPdf::2                      0                       # What read queue length does an incoming req see
system.mem_ctrls0.rdQLenPdf::3                      0                       # What read queue length does an incoming req see
system.mem_ctrls0.rdQLenPdf::4                      0                       # What read queue length does an incoming req see
system.mem_ctrls0.rdQLenPdf::5                      0                       # What read queue length does an incoming req see
system.mem_ctrls0.rdQLenPdf::6                      0                       # What read queue length does an incoming req see
system.mem_ctrls0.rdQLenPdf::7                      0                       # What read queue length does an incoming req see
system.mem_ctrls0.rdQLenPdf::8                      0                       # What read queue length does an incoming req see
system.mem_ctrls0.rdQLenPdf::9                      0                       # What read queue length does an incoming req see
system.mem_ctrls0.rdQLenPdf::10                     0                       # What read queue length does an incoming req see
system.mem_ctrls0.rdQLenPdf::11                     0                       # What read queue length does an incoming req see
system.mem_ctrls0.rdQLenPdf::12                     0                       # What read queue length does an incoming req see
system.mem_ctrls0.rdQLenPdf::13                     0                       # What read queue length does an incoming req see
system.mem_ctrls0.rdQLenPdf::14                     0                       # What read queue length does an incoming req see
system.mem_ctrls0.rdQLenPdf::15                     0                       # What read queue length does an incoming req see
system.mem_ctrls0.rdQLenPdf::16                     0                       # What read queue length does an incoming req see
system.mem_ctrls0.rdQLenPdf::17                     0                       # What read queue length does an incoming req see
system.mem_ctrls0.rdQLenPdf::18                     0                       # What read queue length does an incoming req see
system.mem_ctrls0.rdQLenPdf::19                     0                       # What read queue length does an incoming req see
system.mem_ctrls0.rdQLenPdf::20                     0                       # What read queue length does an incoming req see
system.mem_ctrls0.rdQLenPdf::21                     0                       # What read queue length does an incoming req see
system.mem_ctrls0.rdQLenPdf::22                     0                       # What read queue length does an incoming req see
system.mem_ctrls0.rdQLenPdf::23                     0                       # What read queue length does an incoming req see
system.mem_ctrls0.rdQLenPdf::24                     0                       # What read queue length does an incoming req see
system.mem_ctrls0.rdQLenPdf::25                     0                       # What read queue length does an incoming req see
system.mem_ctrls0.rdQLenPdf::26                     0                       # What read queue length does an incoming req see
system.mem_ctrls0.rdQLenPdf::27                     0                       # What read queue length does an incoming req see
system.mem_ctrls0.rdQLenPdf::28                     0                       # What read queue length does an incoming req see
system.mem_ctrls0.rdQLenPdf::29                     0                       # What read queue length does an incoming req see
system.mem_ctrls0.rdQLenPdf::30                     0                       # What read queue length does an incoming req see
system.mem_ctrls0.rdQLenPdf::31                     0                       # What read queue length does an incoming req see
system.mem_ctrls0.wrQLenPdf::0                      0                       # What write queue length does an incoming req see
system.mem_ctrls0.wrQLenPdf::1                      0                       # What write queue length does an incoming req see
system.mem_ctrls0.wrQLenPdf::2                      0                       # What write queue length does an incoming req see
system.mem_ctrls0.wrQLenPdf::3                      0                       # What write queue length does an incoming req see
system.mem_ctrls0.wrQLenPdf::4                      0                       # What write queue length does an incoming req see
system.mem_ctrls0.wrQLenPdf::5                      0                       # What write queue length does an incoming req see
system.mem_ctrls0.wrQLenPdf::6                      0                       # What write queue length does an incoming req see
system.mem_ctrls0.wrQLenPdf::7                      0                       # What write queue length does an incoming req see
system.mem_ctrls0.wrQLenPdf::8                      0                       # What write queue length does an incoming req see
system.mem_ctrls0.wrQLenPdf::9                      0                       # What write queue length does an incoming req see
system.mem_ctrls0.wrQLenPdf::10                     0                       # What write queue length does an incoming req see
system.mem_ctrls0.wrQLenPdf::11                     0                       # What write queue length does an incoming req see
system.mem_ctrls0.wrQLenPdf::12                     0                       # What write queue length does an incoming req see
system.mem_ctrls0.wrQLenPdf::13                     0                       # What write queue length does an incoming req see
system.mem_ctrls0.wrQLenPdf::14                     0                       # What write queue length does an incoming req see
system.mem_ctrls0.wrQLenPdf::15                     0                       # What write queue length does an incoming req see
system.mem_ctrls0.wrQLenPdf::16                     0                       # What write queue length does an incoming req see
system.mem_ctrls0.wrQLenPdf::17                     0                       # What write queue length does an incoming req see
system.mem_ctrls0.wrQLenPdf::18                     0                       # What write queue length does an incoming req see
system.mem_ctrls0.wrQLenPdf::19                     0                       # What write queue length does an incoming req see
system.mem_ctrls0.wrQLenPdf::20                     0                       # What write queue length does an incoming req see
system.mem_ctrls0.wrQLenPdf::21                     0                       # What write queue length does an incoming req see
system.mem_ctrls0.wrQLenPdf::22                     0                       # What write queue length does an incoming req see
system.mem_ctrls0.wrQLenPdf::23                     0                       # What write queue length does an incoming req see
system.mem_ctrls0.wrQLenPdf::24                     0                       # What write queue length does an incoming req see
system.mem_ctrls0.wrQLenPdf::25                     0                       # What write queue length does an incoming req see
system.mem_ctrls0.wrQLenPdf::26                     0                       # What write queue length does an incoming req see
system.mem_ctrls0.wrQLenPdf::27                     0                       # What write queue length does an incoming req see
system.mem_ctrls0.wrQLenPdf::28                     0                       # What write queue length does an incoming req see
system.mem_ctrls0.wrQLenPdf::29                     0                       # What write queue length does an incoming req see
system.mem_ctrls0.wrQLenPdf::30                     0                       # What write queue length does an incoming req see
system.mem_ctrls0.wrQLenPdf::31                     0                       # What write queue length does an incoming req see
system.mem_ctrls0.wrQLenPdf::32                     0                       # What write queue length does an incoming req see
system.mem_ctrls0.wrQLenPdf::33                     0                       # What write queue length does an incoming req see
system.mem_ctrls0.wrQLenPdf::34                     0                       # What write queue length does an incoming req see
system.mem_ctrls0.wrQLenPdf::35                     0                       # What write queue length does an incoming req see
system.mem_ctrls0.wrQLenPdf::36                     0                       # What write queue length does an incoming req see
system.mem_ctrls0.wrQLenPdf::37                     0                       # What write queue length does an incoming req see
system.mem_ctrls0.wrQLenPdf::38                     0                       # What write queue length does an incoming req see
system.mem_ctrls0.wrQLenPdf::39                     0                       # What write queue length does an incoming req see
system.mem_ctrls0.wrQLenPdf::40                     0                       # What write queue length does an incoming req see
system.mem_ctrls0.wrQLenPdf::41                     0                       # What write queue length does an incoming req see
system.mem_ctrls0.wrQLenPdf::42                     0                       # What write queue length does an incoming req see
system.mem_ctrls0.wrQLenPdf::43                     0                       # What write queue length does an incoming req see
system.mem_ctrls0.wrQLenPdf::44                     0                       # What write queue length does an incoming req see
system.mem_ctrls0.wrQLenPdf::45                     0                       # What write queue length does an incoming req see
system.mem_ctrls0.wrQLenPdf::46                     0                       # What write queue length does an incoming req see
system.mem_ctrls0.wrQLenPdf::47                     0                       # What write queue length does an incoming req see
system.mem_ctrls0.wrQLenPdf::48                     0                       # What write queue length does an incoming req see
system.mem_ctrls0.wrQLenPdf::49                     0                       # What write queue length does an incoming req see
system.mem_ctrls0.wrQLenPdf::50                     0                       # What write queue length does an incoming req see
system.mem_ctrls0.wrQLenPdf::51                     0                       # What write queue length does an incoming req see
system.mem_ctrls0.wrQLenPdf::52                     0                       # What write queue length does an incoming req see
system.mem_ctrls0.wrQLenPdf::53                     0                       # What write queue length does an incoming req see
system.mem_ctrls0.wrQLenPdf::54                     0                       # What write queue length does an incoming req see
system.mem_ctrls0.wrQLenPdf::55                     0                       # What write queue length does an incoming req see
system.mem_ctrls0.wrQLenPdf::56                     0                       # What write queue length does an incoming req see
system.mem_ctrls0.wrQLenPdf::57                     0                       # What write queue length does an incoming req see
system.mem_ctrls0.wrQLenPdf::58                     0                       # What write queue length does an incoming req see
system.mem_ctrls0.wrQLenPdf::59                     0                       # What write queue length does an incoming req see
system.mem_ctrls0.wrQLenPdf::60                     0                       # What write queue length does an incoming req see
system.mem_ctrls0.wrQLenPdf::61                     0                       # What write queue length does an incoming req see
system.mem_ctrls0.wrQLenPdf::62                     0                       # What write queue length does an incoming req see
system.mem_ctrls0.wrQLenPdf::63                     0                       # What write queue length does an incoming req see
system.mem_ctrls0.bytesPerActivate::samples        10230                       # Bytes accessed per row activation
system.mem_ctrls0.bytesPerActivate::mean   100.860997                       # Bytes accessed per row activation
system.mem_ctrls0.bytesPerActivate::gmean    87.438376                       # Bytes accessed per row activation
system.mem_ctrls0.bytesPerActivate::stdev    72.112273                       # Bytes accessed per row activation
system.mem_ctrls0.bytesPerActivate::0-127         6746     65.94%     65.94% # Bytes accessed per row activation
system.mem_ctrls0.bytesPerActivate::128-255         3023     29.55%     95.49% # Bytes accessed per row activation
system.mem_ctrls0.bytesPerActivate::256-383          315      3.08%     98.57% # Bytes accessed per row activation
system.mem_ctrls0.bytesPerActivate::384-511           82      0.80%     99.37% # Bytes accessed per row activation
system.mem_ctrls0.bytesPerActivate::512-639           46      0.45%     99.82% # Bytes accessed per row activation
system.mem_ctrls0.bytesPerActivate::640-767            7      0.07%     99.89% # Bytes accessed per row activation
system.mem_ctrls0.bytesPerActivate::768-895            4      0.04%     99.93% # Bytes accessed per row activation
system.mem_ctrls0.bytesPerActivate::896-1023            2      0.02%     99.95% # Bytes accessed per row activation
system.mem_ctrls0.bytesPerActivate::1024-1151            5      0.05%    100.00% # Bytes accessed per row activation
system.mem_ctrls0.bytesPerActivate::total        10230                       # Bytes accessed per row activation
system.mem_ctrls0.totQLat                  2674808555                       # Total ticks spent queuing
system.mem_ctrls0.totMemAccLat             2977096055                       # Total ticks spent from burst creation until serviced by the DRAM
system.mem_ctrls0.totBusLat                  80610000                       # Total ticks spent in databus transfers
system.mem_ctrls0.avgQLat                   165910.47                       # Average queueing delay per DRAM burst
system.mem_ctrls0.avgBusLat                   5000.00                       # Average bus latency per DRAM burst
system.mem_ctrls0.avgMemAccLat              184660.47                       # Average memory access latency per DRAM burst
system.mem_ctrls0.avgRdBW                        0.96                       # Average DRAM read bandwidth in MiByte/s
system.mem_ctrls0.avgWrBW                        0.00                       # Average achieved write bandwidth in MiByte/s
system.mem_ctrls0.avgRdBWSys                     0.96                       # Average system read bandwidth in MiByte/s
system.mem_ctrls0.avgWrBWSys                     0.00                       # Average system write bandwidth in MiByte/s
system.mem_ctrls0.peakBW                     12800.00                       # Theoretical peak bandwidth in MiByte/s
system.mem_ctrls0.busUtil                        0.01                       # Data bus utilization in percentage
system.mem_ctrls0.busUtilRead                    0.01                       # Data bus utilization in percentage for reads
system.mem_ctrls0.busUtilWrite                   0.00                       # Data bus utilization in percentage for writes
system.mem_ctrls0.avgRdQLen                      1.00                       # Average read queue length when enqueuing
system.mem_ctrls0.avgWrQLen                      0.00                       # Average write queue length when enqueuing
system.mem_ctrls0.readRowHits                    5892                       # Number of row buffer hits during reads
system.mem_ctrls0.writeRowHits                      0                       # Number of row buffer hits during writes
system.mem_ctrls0.readRowHitRate                36.55                       # Row buffer hit rate for reads
system.mem_ctrls0.writeRowHitRate                 nan                       # Row buffer hit rate for writes
system.mem_ctrls0.avgGap                  65450959.81                       # Average gap between requests
system.mem_ctrls0.pageHitRate                   36.55                       # Row buffer hit rate, read and write combined
system.mem_ctrls0_0.actEnergy                37156560                       # Energy for activate commands per rank (pJ)
system.mem_ctrls0_0.preEnergy                19749180                       # Energy for precharge commands per rank (pJ)
system.mem_ctrls0_0.readEnergy               58490880                       # Energy for read commands per rank (pJ)
system.mem_ctrls0_0.writeEnergy                     0                       # Energy for write commands per rank (pJ)
system.mem_ctrls0_0.refreshEnergy        5402685600.000001                       # Energy for refresh commands per rank (pJ)
system.mem_ctrls0_0.actBackEnergy          1113009930                       # Energy for active background per rank (pJ)
system.mem_ctrls0_0.preBackEnergy           328593600                       # Energy for precharge background per rank (pJ)
system.mem_ctrls0_0.actPowerDownEnergy    11821233420                       # Energy for active power-down per rank (pJ)
system.mem_ctrls0_0.prePowerDownEnergy     8350044000                       # Energy for precharge power-down per rank (pJ)
system.mem_ctrls0_0.selfRefreshEnergy    245859070500                       # Energy for self refresh per rank (pJ)
system.mem_ctrls0_0.totalEnergy          272991444390                       # Total energy per rank (pJ)
system.mem_ctrls0_0.averagePower           255.172700                       # Core power per rank (mW)
system.mem_ctrls0_0.totalIdleTime        1051905534914                       # Total Idle time Per DRAM Rank
system.mem_ctrls0_0.memoryStateTime::IDLE    667600018                       # Time in different power states
system.mem_ctrls0_0.memoryStateTime::REF   2299992000                       # Time in different power states
system.mem_ctrls0_0.memoryStateTime::SREF 1018861836961                       # Time in different power states
system.mem_ctrls0_0.memoryStateTime::PRE_PDN  21744920536                       # Time in different power states
system.mem_ctrls0_0.memoryStateTime::ACT    332001969                       # Time in different power states
system.mem_ctrls0_0.memoryStateTime::ACT_PDN  25923786477                       # Time in different power states
system.mem_ctrls0_1.actEnergy                35885640                       # Energy for activate commands per rank (pJ)
system.mem_ctrls0_1.preEnergy                19073670                       # Energy for precharge commands per rank (pJ)
system.mem_ctrls0_1.readEnergy               56620200                       # Energy for read commands per rank (pJ)
system.mem_ctrls0_1.writeEnergy                     0                       # Energy for write commands per rank (pJ)
system.mem_ctrls0_1.refreshEnergy        4875324480.000001                       # Energy for refresh commands per rank (pJ)
system.mem_ctrls0_1.actBackEnergy          1012448250                       # Energy for active background per rank (pJ)
system.mem_ctrls0_1.preBackEnergy           295865280                       # Energy for precharge background per rank (pJ)
system.mem_ctrls0_1.actPowerDownEnergy    10829494410                       # Energy for active power-down per rank (pJ)
system.mem_ctrls0_1.prePowerDownEnergy     7527972480                       # Energy for precharge power-down per rank (pJ)
system.mem_ctrls0_1.selfRefreshEnergy    246811350135                       # Energy for self refresh per rank (pJ)
system.mem_ctrls0_1.totalEnergy          271465403895                       # Total energy per rank (pJ)
system.mem_ctrls0_1.averagePower           253.746267                       # Core power per rank (mW)
system.mem_ctrls0_1.totalIdleTime        1052218493679                       # Total Idle time Per DRAM Rank
system.mem_ctrls0_1.memoryStateTime::IDLE    599458213                       # Time in different power states
system.mem_ctrls0_1.memoryStateTime::REF   2075256000                       # Time in different power states
system.mem_ctrls0_1.memoryStateTime::SREF 1023483368461                       # Time in different power states
system.mem_ctrls0_1.memoryStateTime::PRE_PDN  19604233032                       # Time in different power states
system.mem_ctrls0_1.memoryStateTime::ACT    318892408                       # Time in different power states
system.mem_ctrls0_1.memoryStateTime::ACT_PDN  23748929847                       # Time in different power states
system.mem_ctrls1.pwrStateResidencyTicks::UNDEFINED 110830964345748                       # Cumulative time (in ticks) in various power states
system.mem_ctrls1.bytes_read::cpu.inst             64                       # Number of bytes read from this memory
system.mem_ctrls1.bytes_read::switch_cpus.inst         4480                       # Number of bytes read from this memory
system.mem_ctrls1.bytes_read::switch_cpus.data      1026496                       # Number of bytes read from this memory
system.mem_ctrls1.bytes_read::switch_cpus_1.inst          896                       # Number of bytes read from this memory
system.mem_ctrls1.bytes_read::switch_cpus_1.data         7744                       # Number of bytes read from this memory
system.mem_ctrls1.bytes_read::total           1039680                       # Number of bytes read from this memory
system.mem_ctrls1.bytes_inst_read::cpu.inst           64                       # Number of instructions bytes read from this memory
system.mem_ctrls1.bytes_inst_read::switch_cpus.inst         4480                       # Number of instructions bytes read from this memory
system.mem_ctrls1.bytes_inst_read::switch_cpus_1.inst          896                       # Number of instructions bytes read from this memory
system.mem_ctrls1.bytes_inst_read::total         5440                       # Number of instructions bytes read from this memory
system.mem_ctrls1.num_reads::cpu.inst               1                       # Number of read requests responded to by this memory
system.mem_ctrls1.num_reads::switch_cpus.inst           70                       # Number of read requests responded to by this memory
system.mem_ctrls1.num_reads::switch_cpus.data        16039                       # Number of read requests responded to by this memory
system.mem_ctrls1.num_reads::switch_cpus_1.inst           14                       # Number of read requests responded to by this memory
system.mem_ctrls1.num_reads::switch_cpus_1.data          121                       # Number of read requests responded to by this memory
system.mem_ctrls1.num_reads::total              16245                       # Number of read requests responded to by this memory
system.mem_ctrls1.bw_read::cpu.inst                60                       # Total read bandwidth from this memory (bytes/s)
system.mem_ctrls1.bw_read::switch_cpus.inst         4188                       # Total read bandwidth from this memory (bytes/s)
system.mem_ctrls1.bw_read::switch_cpus.data       959494                       # Total read bandwidth from this memory (bytes/s)
system.mem_ctrls1.bw_read::switch_cpus_1.inst          838                       # Total read bandwidth from this memory (bytes/s)
system.mem_ctrls1.bw_read::switch_cpus_1.data         7239                       # Total read bandwidth from this memory (bytes/s)
system.mem_ctrls1.bw_read::total               971818                       # Total read bandwidth from this memory (bytes/s)
system.mem_ctrls1.bw_inst_read::cpu.inst           60                       # Instruction read bandwidth from this memory (bytes/s)
system.mem_ctrls1.bw_inst_read::switch_cpus.inst         4188                       # Instruction read bandwidth from this memory (bytes/s)
system.mem_ctrls1.bw_inst_read::switch_cpus_1.inst          838                       # Instruction read bandwidth from this memory (bytes/s)
system.mem_ctrls1.bw_inst_read::total            5085                       # Instruction read bandwidth from this memory (bytes/s)
system.mem_ctrls1.bw_total::cpu.inst               60                       # Total bandwidth to/from this memory (bytes/s)
system.mem_ctrls1.bw_total::switch_cpus.inst         4188                       # Total bandwidth to/from this memory (bytes/s)
system.mem_ctrls1.bw_total::switch_cpus.data       959494                       # Total bandwidth to/from this memory (bytes/s)
system.mem_ctrls1.bw_total::switch_cpus_1.inst          838                       # Total bandwidth to/from this memory (bytes/s)
system.mem_ctrls1.bw_total::switch_cpus_1.data         7239                       # Total bandwidth to/from this memory (bytes/s)
system.mem_ctrls1.bw_total::total              971818                       # Total bandwidth to/from this memory (bytes/s)
system.mem_ctrls1.readReqs                      16245                       # Number of read requests accepted
system.mem_ctrls1.writeReqs                         0                       # Number of write requests accepted
system.mem_ctrls1.readBursts                    16245                       # Number of DRAM read bursts, including those serviced by the write queue
system.mem_ctrls1.writeBursts                       0                       # Number of DRAM write bursts, including those merged in the write queue
system.mem_ctrls1.bytesReadDRAM               1039680                       # Total number of bytes read from DRAM
system.mem_ctrls1.bytesReadWrQ                      0                       # Total number of bytes read from write queue
system.mem_ctrls1.bytesWritten                      0                       # Total number of bytes written to DRAM
system.mem_ctrls1.bytesReadSys                1039680                       # Total read bytes from the system interface side
system.mem_ctrls1.bytesWrittenSys                   0                       # Total written bytes from the system interface side
system.mem_ctrls1.servicedByWrQ                     0                       # Number of DRAM read bursts serviced by the write queue
system.mem_ctrls1.mergedWrBursts                    0                       # Number of DRAM write bursts merged with an existing one
system.mem_ctrls1.neitherReadNorWriteReqs            0                       # Number of requests that are neither read nor write
system.mem_ctrls1.perBankRdBursts::0              957                       # Per bank write bursts
system.mem_ctrls1.perBankRdBursts::1             1011                       # Per bank write bursts
system.mem_ctrls1.perBankRdBursts::2              960                       # Per bank write bursts
system.mem_ctrls1.perBankRdBursts::3             1006                       # Per bank write bursts
system.mem_ctrls1.perBankRdBursts::4              972                       # Per bank write bursts
system.mem_ctrls1.perBankRdBursts::5             1085                       # Per bank write bursts
system.mem_ctrls1.perBankRdBursts::6             1121                       # Per bank write bursts
system.mem_ctrls1.perBankRdBursts::7             1045                       # Per bank write bursts
system.mem_ctrls1.perBankRdBursts::8             1080                       # Per bank write bursts
system.mem_ctrls1.perBankRdBursts::9             1007                       # Per bank write bursts
system.mem_ctrls1.perBankRdBursts::10            1090                       # Per bank write bursts
system.mem_ctrls1.perBankRdBursts::11            1060                       # Per bank write bursts
system.mem_ctrls1.perBankRdBursts::12             879                       # Per bank write bursts
system.mem_ctrls1.perBankRdBursts::13             921                       # Per bank write bursts
system.mem_ctrls1.perBankRdBursts::14            1020                       # Per bank write bursts
system.mem_ctrls1.perBankRdBursts::15            1031                       # Per bank write bursts
system.mem_ctrls1.perBankWrBursts::0                0                       # Per bank write bursts
system.mem_ctrls1.perBankWrBursts::1                0                       # Per bank write bursts
system.mem_ctrls1.perBankWrBursts::2                0                       # Per bank write bursts
system.mem_ctrls1.perBankWrBursts::3                0                       # Per bank write bursts
system.mem_ctrls1.perBankWrBursts::4                0                       # Per bank write bursts
system.mem_ctrls1.perBankWrBursts::5                0                       # Per bank write bursts
system.mem_ctrls1.perBankWrBursts::6                0                       # Per bank write bursts
system.mem_ctrls1.perBankWrBursts::7                0                       # Per bank write bursts
system.mem_ctrls1.perBankWrBursts::8                0                       # Per bank write bursts
system.mem_ctrls1.perBankWrBursts::9                0                       # Per bank write bursts
system.mem_ctrls1.perBankWrBursts::10               0                       # Per bank write bursts
system.mem_ctrls1.perBankWrBursts::11               0                       # Per bank write bursts
system.mem_ctrls1.perBankWrBursts::12               0                       # Per bank write bursts
system.mem_ctrls1.perBankWrBursts::13               0                       # Per bank write bursts
system.mem_ctrls1.perBankWrBursts::14               0                       # Per bank write bursts
system.mem_ctrls1.perBankWrBursts::15               0                       # Per bank write bursts
system.mem_ctrls1.numRdRetry                        0                       # Number of times read queue was full causing retry
system.mem_ctrls1.numWrRetry                        0                       # Number of times write queue was full causing retry
system.mem_ctrls1.totGap                 1058743933929                       # Total gap between requests
system.mem_ctrls1.readPktSize::0                    0                       # Read request sizes (log2)
system.mem_ctrls1.readPktSize::1                    0                       # Read request sizes (log2)
system.mem_ctrls1.readPktSize::2                    0                       # Read request sizes (log2)
system.mem_ctrls1.readPktSize::3                    0                       # Read request sizes (log2)
system.mem_ctrls1.readPktSize::4                    0                       # Read request sizes (log2)
system.mem_ctrls1.readPktSize::5                    0                       # Read request sizes (log2)
system.mem_ctrls1.readPktSize::6                16245                       # Read request sizes (log2)
system.mem_ctrls1.writePktSize::0                   0                       # Write request sizes (log2)
system.mem_ctrls1.writePktSize::1                   0                       # Write request sizes (log2)
system.mem_ctrls1.writePktSize::2                   0                       # Write request sizes (log2)
system.mem_ctrls1.writePktSize::3                   0                       # Write request sizes (log2)
system.mem_ctrls1.writePktSize::4                   0                       # Write request sizes (log2)
system.mem_ctrls1.writePktSize::5                   0                       # Write request sizes (log2)
system.mem_ctrls1.writePktSize::6                   0                       # Write request sizes (log2)
system.mem_ctrls1.rdQLenPdf::0                  16231                       # What read queue length does an incoming req see
system.mem_ctrls1.rdQLenPdf::1                     12                       # What read queue length does an incoming req see
system.mem_ctrls1.rdQLenPdf::2                      1                       # What read queue length does an incoming req see
system.mem_ctrls1.rdQLenPdf::3                      1                       # What read queue length does an incoming req see
system.mem_ctrls1.rdQLenPdf::4                      0                       # What read queue length does an incoming req see
system.mem_ctrls1.rdQLenPdf::5                      0                       # What read queue length does an incoming req see
system.mem_ctrls1.rdQLenPdf::6                      0                       # What read queue length does an incoming req see
system.mem_ctrls1.rdQLenPdf::7                      0                       # What read queue length does an incoming req see
system.mem_ctrls1.rdQLenPdf::8                      0                       # What read queue length does an incoming req see
system.mem_ctrls1.rdQLenPdf::9                      0                       # What read queue length does an incoming req see
system.mem_ctrls1.rdQLenPdf::10                     0                       # What read queue length does an incoming req see
system.mem_ctrls1.rdQLenPdf::11                     0                       # What read queue length does an incoming req see
system.mem_ctrls1.rdQLenPdf::12                     0                       # What read queue length does an incoming req see
system.mem_ctrls1.rdQLenPdf::13                     0                       # What read queue length does an incoming req see
system.mem_ctrls1.rdQLenPdf::14                     0                       # What read queue length does an incoming req see
system.mem_ctrls1.rdQLenPdf::15                     0                       # What read queue length does an incoming req see
system.mem_ctrls1.rdQLenPdf::16                     0                       # What read queue length does an incoming req see
system.mem_ctrls1.rdQLenPdf::17                     0                       # What read queue length does an incoming req see
system.mem_ctrls1.rdQLenPdf::18                     0                       # What read queue length does an incoming req see
system.mem_ctrls1.rdQLenPdf::19                     0                       # What read queue length does an incoming req see
system.mem_ctrls1.rdQLenPdf::20                     0                       # What read queue length does an incoming req see
system.mem_ctrls1.rdQLenPdf::21                     0                       # What read queue length does an incoming req see
system.mem_ctrls1.rdQLenPdf::22                     0                       # What read queue length does an incoming req see
system.mem_ctrls1.rdQLenPdf::23                     0                       # What read queue length does an incoming req see
system.mem_ctrls1.rdQLenPdf::24                     0                       # What read queue length does an incoming req see
system.mem_ctrls1.rdQLenPdf::25                     0                       # What read queue length does an incoming req see
system.mem_ctrls1.rdQLenPdf::26                     0                       # What read queue length does an incoming req see
system.mem_ctrls1.rdQLenPdf::27                     0                       # What read queue length does an incoming req see
system.mem_ctrls1.rdQLenPdf::28                     0                       # What read queue length does an incoming req see
system.mem_ctrls1.rdQLenPdf::29                     0                       # What read queue length does an incoming req see
system.mem_ctrls1.rdQLenPdf::30                     0                       # What read queue length does an incoming req see
system.mem_ctrls1.rdQLenPdf::31                     0                       # What read queue length does an incoming req see
system.mem_ctrls1.wrQLenPdf::0                      0                       # What write queue length does an incoming req see
system.mem_ctrls1.wrQLenPdf::1                      0                       # What write queue length does an incoming req see
system.mem_ctrls1.wrQLenPdf::2                      0                       # What write queue length does an incoming req see
system.mem_ctrls1.wrQLenPdf::3                      0                       # What write queue length does an incoming req see
system.mem_ctrls1.wrQLenPdf::4                      0                       # What write queue length does an incoming req see
system.mem_ctrls1.wrQLenPdf::5                      0                       # What write queue length does an incoming req see
system.mem_ctrls1.wrQLenPdf::6                      0                       # What write queue length does an incoming req see
system.mem_ctrls1.wrQLenPdf::7                      0                       # What write queue length does an incoming req see
system.mem_ctrls1.wrQLenPdf::8                      0                       # What write queue length does an incoming req see
system.mem_ctrls1.wrQLenPdf::9                      0                       # What write queue length does an incoming req see
system.mem_ctrls1.wrQLenPdf::10                     0                       # What write queue length does an incoming req see
system.mem_ctrls1.wrQLenPdf::11                     0                       # What write queue length does an incoming req see
system.mem_ctrls1.wrQLenPdf::12                     0                       # What write queue length does an incoming req see
system.mem_ctrls1.wrQLenPdf::13                     0                       # What write queue length does an incoming req see
system.mem_ctrls1.wrQLenPdf::14                     0                       # What write queue length does an incoming req see
system.mem_ctrls1.wrQLenPdf::15                     0                       # What write queue length does an incoming req see
system.mem_ctrls1.wrQLenPdf::16                     0                       # What write queue length does an incoming req see
system.mem_ctrls1.wrQLenPdf::17                     0                       # What write queue length does an incoming req see
system.mem_ctrls1.wrQLenPdf::18                     0                       # What write queue length does an incoming req see
system.mem_ctrls1.wrQLenPdf::19                     0                       # What write queue length does an incoming req see
system.mem_ctrls1.wrQLenPdf::20                     0                       # What write queue length does an incoming req see
system.mem_ctrls1.wrQLenPdf::21                     0                       # What write queue length does an incoming req see
system.mem_ctrls1.wrQLenPdf::22                     0                       # What write queue length does an incoming req see
system.mem_ctrls1.wrQLenPdf::23                     0                       # What write queue length does an incoming req see
system.mem_ctrls1.wrQLenPdf::24                     0                       # What write queue length does an incoming req see
system.mem_ctrls1.wrQLenPdf::25                     0                       # What write queue length does an incoming req see
system.mem_ctrls1.wrQLenPdf::26                     0                       # What write queue length does an incoming req see
system.mem_ctrls1.wrQLenPdf::27                     0                       # What write queue length does an incoming req see
system.mem_ctrls1.wrQLenPdf::28                     0                       # What write queue length does an incoming req see
system.mem_ctrls1.wrQLenPdf::29                     0                       # What write queue length does an incoming req see
system.mem_ctrls1.wrQLenPdf::30                     0                       # What write queue length does an incoming req see
system.mem_ctrls1.wrQLenPdf::31                     0                       # What write queue length does an incoming req see
system.mem_ctrls1.wrQLenPdf::32                     0                       # What write queue length does an incoming req see
system.mem_ctrls1.wrQLenPdf::33                     0                       # What write queue length does an incoming req see
system.mem_ctrls1.wrQLenPdf::34                     0                       # What write queue length does an incoming req see
system.mem_ctrls1.wrQLenPdf::35                     0                       # What write queue length does an incoming req see
system.mem_ctrls1.wrQLenPdf::36                     0                       # What write queue length does an incoming req see
system.mem_ctrls1.wrQLenPdf::37                     0                       # What write queue length does an incoming req see
system.mem_ctrls1.wrQLenPdf::38                     0                       # What write queue length does an incoming req see
system.mem_ctrls1.wrQLenPdf::39                     0                       # What write queue length does an incoming req see
system.mem_ctrls1.wrQLenPdf::40                     0                       # What write queue length does an incoming req see
system.mem_ctrls1.wrQLenPdf::41                     0                       # What write queue length does an incoming req see
system.mem_ctrls1.wrQLenPdf::42                     0                       # What write queue length does an incoming req see
system.mem_ctrls1.wrQLenPdf::43                     0                       # What write queue length does an incoming req see
system.mem_ctrls1.wrQLenPdf::44                     0                       # What write queue length does an incoming req see
system.mem_ctrls1.wrQLenPdf::45                     0                       # What write queue length does an incoming req see
system.mem_ctrls1.wrQLenPdf::46                     0                       # What write queue length does an incoming req see
system.mem_ctrls1.wrQLenPdf::47                     0                       # What write queue length does an incoming req see
system.mem_ctrls1.wrQLenPdf::48                     0                       # What write queue length does an incoming req see
system.mem_ctrls1.wrQLenPdf::49                     0                       # What write queue length does an incoming req see
system.mem_ctrls1.wrQLenPdf::50                     0                       # What write queue length does an incoming req see
system.mem_ctrls1.wrQLenPdf::51                     0                       # What write queue length does an incoming req see
system.mem_ctrls1.wrQLenPdf::52                     0                       # What write queue length does an incoming req see
system.mem_ctrls1.wrQLenPdf::53                     0                       # What write queue length does an incoming req see
system.mem_ctrls1.wrQLenPdf::54                     0                       # What write queue length does an incoming req see
system.mem_ctrls1.wrQLenPdf::55                     0                       # What write queue length does an incoming req see
system.mem_ctrls1.wrQLenPdf::56                     0                       # What write queue length does an incoming req see
system.mem_ctrls1.wrQLenPdf::57                     0                       # What write queue length does an incoming req see
system.mem_ctrls1.wrQLenPdf::58                     0                       # What write queue length does an incoming req see
system.mem_ctrls1.wrQLenPdf::59                     0                       # What write queue length does an incoming req see
system.mem_ctrls1.wrQLenPdf::60                     0                       # What write queue length does an incoming req see
system.mem_ctrls1.wrQLenPdf::61                     0                       # What write queue length does an incoming req see
system.mem_ctrls1.wrQLenPdf::62                     0                       # What write queue length does an incoming req see
system.mem_ctrls1.wrQLenPdf::63                     0                       # What write queue length does an incoming req see
system.mem_ctrls1.bytesPerActivate::samples        10134                       # Bytes accessed per row activation
system.mem_ctrls1.bytesPerActivate::mean   102.593250                       # Bytes accessed per row activation
system.mem_ctrls1.bytesPerActivate::gmean    88.419529                       # Bytes accessed per row activation
system.mem_ctrls1.bytesPerActivate::stdev    75.511324                       # Bytes accessed per row activation
system.mem_ctrls1.bytesPerActivate::0-127         6585     64.98%     64.98% # Bytes accessed per row activation
system.mem_ctrls1.bytesPerActivate::128-255         3039     29.99%     94.97% # Bytes accessed per row activation
system.mem_ctrls1.bytesPerActivate::256-383          351      3.46%     98.43% # Bytes accessed per row activation
system.mem_ctrls1.bytesPerActivate::384-511           89      0.88%     99.31% # Bytes accessed per row activation
system.mem_ctrls1.bytesPerActivate::512-639           46      0.45%     99.76% # Bytes accessed per row activation
system.mem_ctrls1.bytesPerActivate::640-767           11      0.11%     99.87% # Bytes accessed per row activation
system.mem_ctrls1.bytesPerActivate::768-895            4      0.04%     99.91% # Bytes accessed per row activation
system.mem_ctrls1.bytesPerActivate::1024-1151            9      0.09%    100.00% # Bytes accessed per row activation
system.mem_ctrls1.bytesPerActivate::total        10134                       # Bytes accessed per row activation
system.mem_ctrls1.totQLat                  2607251674                       # Total ticks spent queuing
system.mem_ctrls1.totMemAccLat             2911845424                       # Total ticks spent from burst creation until serviced by the DRAM
system.mem_ctrls1.totBusLat                  81225000                       # Total ticks spent in databus transfers
system.mem_ctrls1.avgQLat                   160495.64                       # Average queueing delay per DRAM burst
system.mem_ctrls1.avgBusLat                   5000.00                       # Average bus latency per DRAM burst
system.mem_ctrls1.avgMemAccLat              179245.64                       # Average memory access latency per DRAM burst
system.mem_ctrls1.avgRdBW                        0.97                       # Average DRAM read bandwidth in MiByte/s
system.mem_ctrls1.avgWrBW                        0.00                       # Average achieved write bandwidth in MiByte/s
system.mem_ctrls1.avgRdBWSys                     0.97                       # Average system read bandwidth in MiByte/s
system.mem_ctrls1.avgWrBWSys                     0.00                       # Average system write bandwidth in MiByte/s
system.mem_ctrls1.peakBW                     12800.00                       # Theoretical peak bandwidth in MiByte/s
system.mem_ctrls1.busUtil                        0.01                       # Data bus utilization in percentage
system.mem_ctrls1.busUtilRead                    0.01                       # Data bus utilization in percentage for reads
system.mem_ctrls1.busUtilWrite                   0.00                       # Data bus utilization in percentage for writes
system.mem_ctrls1.avgRdQLen                      1.00                       # Average read queue length when enqueuing
system.mem_ctrls1.avgWrQLen                      0.00                       # Average write queue length when enqueuing
system.mem_ctrls1.readRowHits                    6111                       # Number of row buffer hits during reads
system.mem_ctrls1.writeRowHits                      0                       # Number of row buffer hits during writes
system.mem_ctrls1.readRowHitRate                37.62                       # Row buffer hit rate for reads
system.mem_ctrls1.writeRowHitRate                 nan                       # Row buffer hit rate for writes
system.mem_ctrls1.avgGap                  65173526.25                       # Average gap between requests
system.mem_ctrls1.pageHitRate                   37.62                       # Row buffer hit rate, read and write combined
system.mem_ctrls1_0.actEnergy                36242640                       # Energy for activate commands per rank (pJ)
system.mem_ctrls1_0.preEnergy                19263420                       # Energy for precharge commands per rank (pJ)
system.mem_ctrls1_0.readEnergy               58240980                       # Energy for read commands per rank (pJ)
system.mem_ctrls1_0.writeEnergy                     0                       # Energy for write commands per rank (pJ)
system.mem_ctrls1_0.refreshEnergy        5115648720.000001                       # Energy for refresh commands per rank (pJ)
system.mem_ctrls1_0.actBackEnergy          1058981910                       # Energy for active background per rank (pJ)
system.mem_ctrls1_0.preBackEnergy           310605120                       # Energy for precharge background per rank (pJ)
system.mem_ctrls1_0.actPowerDownEnergy    11322999840                       # Energy for active power-down per rank (pJ)
system.mem_ctrls1_0.prePowerDownEnergy     7823926560                       # Energy for precharge power-down per rank (pJ)
system.mem_ctrls1_0.selfRefreshEnergy    246412922820                       # Energy for self refresh per rank (pJ)
system.mem_ctrls1_0.totalEnergy          272160072300                       # Total energy per rank (pJ)
system.mem_ctrls1_0.averagePower           254.395593                       # Core power per rank (mW)
system.mem_ctrls1_0.totalIdleTime        1055626237723                       # Total Idle time Per DRAM Rank
system.mem_ctrls1_0.memoryStateTime::IDLE    630037108                       # Time in different power states
system.mem_ctrls1_0.memoryStateTime::REF   2177714000                       # Time in different power states
system.mem_ctrls1_0.memoryStateTime::SREF 1021490230961                       # Time in different power states
system.mem_ctrls1_0.memoryStateTime::PRE_PDN  20374883319                       # Time in different power states
system.mem_ctrls1_0.memoryStateTime::ACT    326187131                       # Time in different power states
system.mem_ctrls1_0.memoryStateTime::ACT_PDN  24831085442                       # Time in different power states
system.mem_ctrls1_1.actEnergy                36114120                       # Energy for activate commands per rank (pJ)
system.mem_ctrls1_1.preEnergy                19195110                       # Energy for precharge commands per rank (pJ)
system.mem_ctrls1_1.readEnergy               57748320                       # Energy for read commands per rank (pJ)
system.mem_ctrls1_1.writeEnergy                     0                       # Energy for write commands per rank (pJ)
system.mem_ctrls1_1.refreshEnergy        4837216800.000001                       # Energy for refresh commands per rank (pJ)
system.mem_ctrls1_1.actBackEnergy          1008084900                       # Energy for active background per rank (pJ)
system.mem_ctrls1_1.preBackEnergy           295551840                       # Energy for precharge background per rank (pJ)
system.mem_ctrls1_1.actPowerDownEnergy    10660553250                       # Energy for active power-down per rank (pJ)
system.mem_ctrls1_1.prePowerDownEnergy     7461089760                       # Energy for precharge power-down per rank (pJ)
system.mem_ctrls1_1.selfRefreshEnergy    246950083035                       # Energy for self refresh per rank (pJ)
system.mem_ctrls1_1.totalEnergy          271326889545                       # Total energy per rank (pJ)
system.mem_ctrls1_1.averagePower           253.616794                       # Core power per rank (mW)
system.mem_ctrls1_1.totalIdleTime        1052228721016                       # Total Idle time Per DRAM Rank
system.mem_ctrls1_1.memoryStateTime::IDLE    600713821                       # Time in different power states
system.mem_ctrls1_1.memoryStateTime::REF   2059148000                       # Time in different power states
system.mem_ctrls1_1.memoryStateTime::SREF 1024038618461                       # Time in different power states
system.mem_ctrls1_1.memoryStateTime::PRE_PDN  19429935581                       # Time in different power states
system.mem_ctrls1_1.memoryStateTime::ACT    323455525                       # Time in different power states
system.mem_ctrls1_1.memoryStateTime::ACT_PDN  23378266573                       # Time in different power states
system.pwrStateResidencyTicks::UNDEFINED 110830964345748                       # Cumulative time (in ticks) in various power states
system.cpu.branchPred.lookups                       3                       # Number of BP lookups
system.cpu.branchPred.condPredicted                 3                       # Number of conditional branches predicted
system.cpu.branchPred.condIncorrect                 1                       # Number of conditional branches incorrect
system.cpu.branchPred.BTBLookups                    0                       # Number of BTB lookups
system.cpu.branchPred.BTBHits                       0                       # Number of BTB hits
system.cpu.branchPred.BTBCorrect                    0                       # Number of correct BTB predictions (this stat may not work properly.
system.cpu.branchPred.BTBHitPct                   nan                       # BTB Hit Percentage
system.cpu.branchPred.usedRAS                       0                       # Number of times the RAS was used to get a target.
system.cpu.branchPred.RASInCorrect                  0                       # Number of incorrect RAS predictions.
system.cpu.branchPred.indirectLookups               0                       # Number of indirect predictor lookups.
system.cpu.branchPred.indirectHits                  0                       # Number of indirect target hits.
system.cpu.branchPred.indirectMisses                0                       # Number of indirect misses.
system.cpu.branchPredindirectMispredicted            0                       # Number of mispredicted indirect branches.
system.cpu_voltage_domain.voltage                   1                       # Voltage in Volts
system.cpu_clk_domain.clock                       333                       # Clock period in ticks
system.cpu.dtb.fetch_hits                           0                       # ITB hits
system.cpu.dtb.fetch_misses                         0                       # ITB misses
system.cpu.dtb.fetch_acv                            0                       # ITB acv
system.cpu.dtb.fetch_accesses                       0                       # ITB accesses
system.cpu.dtb.read_hits                            0                       # DTB read hits
system.cpu.dtb.read_misses                          0                       # DTB read misses
system.cpu.dtb.read_acv                             0                       # DTB read access violations
system.cpu.dtb.read_accesses                        0                       # DTB read accesses
system.cpu.dtb.write_hits                           0                       # DTB write hits
system.cpu.dtb.write_misses                         0                       # DTB write misses
system.cpu.dtb.write_acv                            0                       # DTB write access violations
system.cpu.dtb.write_accesses                       0                       # DTB write accesses
system.cpu.dtb.data_hits                            0                       # DTB hits
system.cpu.dtb.data_misses                          0                       # DTB misses
system.cpu.dtb.data_acv                             0                       # DTB access violations
system.cpu.dtb.data_accesses                        0                       # DTB accesses
system.cpu.itb.fetch_hits                           5                       # ITB hits
system.cpu.itb.fetch_misses                         0                       # ITB misses
system.cpu.itb.fetch_acv                            0                       # ITB acv
system.cpu.itb.fetch_accesses                       5                       # ITB accesses
system.cpu.itb.read_hits                            0                       # DTB read hits
system.cpu.itb.read_misses                          0                       # DTB read misses
system.cpu.itb.read_acv                             0                       # DTB read access violations
system.cpu.itb.read_accesses                        0                       # DTB read accesses
system.cpu.itb.write_hits                           0                       # DTB write hits
system.cpu.itb.write_misses                         0                       # DTB write misses
system.cpu.itb.write_acv                            0                       # DTB write access violations
system.cpu.itb.write_accesses                       0                       # DTB write accesses
system.cpu.itb.data_hits                            0                       # DTB hits
system.cpu.itb.data_misses                          0                       # DTB misses
system.cpu.itb.data_acv                             0                       # DTB access violations
system.cpu.itb.data_accesses                        0                       # DTB accesses
system.cpu.workload.num_syscalls                    0                       # Number of system calls
system.cpu.pwrStateResidencyTicks::ON    1069830137961                       # Cumulative time (in ticks) in various power states
system.cpu.numCycles                              380                       # number of cpu cycles simulated
system.cpu.numWorkItemsStarted                      0                       # number of work items this cpu started
system.cpu.numWorkItemsCompleted                    0                       # number of work items this cpu completed
system.cpu.fetch.icacheStallCycles                 27                       # Number of cycles fetch is stalled on an Icache miss
system.cpu.fetch.Insts                             14                       # Number of instructions fetch has processed
system.cpu.fetch.Branches                           3                       # Number of branches that fetch encountered
system.cpu.fetch.Cycles                             3                       # Number of cycles fetch has run and was not squashing or blocked
system.cpu.fetch.SquashCycles                       5                       # Number of cycles fetch has spent squashing
system.cpu.fetch.PendingDrainCycles                 3                       # Number of cycles fetch has spent waiting on pipes to drain
system.cpu.fetch.CacheLines                         5                       # Number of cache lines fetched
system.cpu.fetch.IcacheSquashes                     3                       # Number of outstanding Icache misses that were squashed
system.cpu.fetch.rateDist::samples                 35                       # Number of instructions fetched each cycle (Total)
system.cpu.fetch.rateDist::mean              0.400000                       # Number of instructions fetched each cycle (Total)
system.cpu.fetch.rateDist::stdev             1.575548                       # Number of instructions fetched each cycle (Total)
system.cpu.fetch.rateDist::underflows               0      0.00%      0.00% # Number of instructions fetched each cycle (Total)
system.cpu.fetch.rateDist::0                       32     91.43%     91.43% # Number of instructions fetched each cycle (Total)
system.cpu.fetch.rateDist::1                        1      2.86%     94.29% # Number of instructions fetched each cycle (Total)
system.cpu.fetch.rateDist::2                        0      0.00%     94.29% # Number of instructions fetched each cycle (Total)
system.cpu.fetch.rateDist::3                        0      0.00%     94.29% # Number of instructions fetched each cycle (Total)
system.cpu.fetch.rateDist::4                        0      0.00%     94.29% # Number of instructions fetched each cycle (Total)
system.cpu.fetch.rateDist::5                        1      2.86%     97.14% # Number of instructions fetched each cycle (Total)
system.cpu.fetch.rateDist::6                        0      0.00%     97.14% # Number of instructions fetched each cycle (Total)
system.cpu.fetch.rateDist::7                        0      0.00%     97.14% # Number of instructions fetched each cycle (Total)
system.cpu.fetch.rateDist::8                        1      2.86%    100.00% # Number of instructions fetched each cycle (Total)
system.cpu.fetch.rateDist::overflows                0      0.00%    100.00% # Number of instructions fetched each cycle (Total)
system.cpu.fetch.rateDist::min_value                0                       # Number of instructions fetched each cycle (Total)
system.cpu.fetch.rateDist::max_value                8                       # Number of instructions fetched each cycle (Total)
system.cpu.fetch.rateDist::total                   35                       # Number of instructions fetched each cycle (Total)
system.cpu.fetch.branchRate                  0.007895                       # Number of branch fetches per cycle
system.cpu.fetch.rate                        0.036842                       # Number of inst fetches per cycle
system.cpu.decode.IdleCycles                       29                       # Number of cycles decode is idle
system.cpu.decode.RunCycles                         3                       # Number of cycles decode is running
system.cpu.decode.SquashCycles                      3                       # Number of cycles decode is squashing
system.cpu.decode.DecodedInsts                     14                       # Number of instructions handled by decode
system.cpu.rename.SquashCycles                      3                       # Number of cycles rename is squashing
system.cpu.rename.IdleCycles                       29                       # Number of cycles rename is idle
system.cpu.rename.serializeStallCycles              0                       # count of cycles rename stalled for serializing inst
system.cpu.rename.RunCycles                         3                       # Number of cycles rename is running
system.cpu.rename.RenamedInsts                     14                       # Number of instructions processed by rename
system.cpu.rename.RenamedOperands                  11                       # Number of destination operands rename has renamed
system.cpu.rename.RenameLookups                    22                       # Number of register rename lookups that rename has made
system.cpu.rename.int_rename_lookups               22                       # Number of integer rename lookups
system.cpu.rename.CommittedMaps                     4                       # Number of HB maps that are committed
system.cpu.rename.UndoneMaps                        7                       # Number of HB maps that are undone due to squashing
system.cpu.rename.serializingInsts                  0                       # count of serializing insts renamed
system.cpu.rename.tempSerializingInsts              0                       # count of temporary serializing insts renamed
system.cpu.rename.skidInsts                         0                       # count of insts added to the skid buffer
system.cpu.memDep0.insertedLoads                    0                       # Number of loads inserted to the mem dependence unit.
system.cpu.memDep0.insertedStores                   0                       # Number of stores inserted to the mem dependence unit.
system.cpu.memDep0.conflictingLoads                 0                       # Number of conflicting loads.
system.cpu.memDep0.conflictingStores                0                       # Number of conflicting stores.
system.cpu.iq.iqInstsAdded                         14                       # Number of instructions added to the IQ (excludes non-spec)
system.cpu.iq.iqInstsIssued                        14                       # Number of instructions issued
system.cpu.iq.iqSquashedInstsExamined               9                       # Number of squashed instructions iterated over during squash; mainly for profiling
system.cpu.iq.issued_per_cycle::samples            35                       # Number of insts issued each cycle
system.cpu.iq.issued_per_cycle::mean         0.400000                       # Number of insts issued each cycle
system.cpu.iq.issued_per_cycle::stdev        0.735647                       # Number of insts issued each cycle
system.cpu.iq.issued_per_cycle::underflows            0      0.00%      0.00% # Number of insts issued each cycle
system.cpu.iq.issued_per_cycle::0                  26     74.29%     74.29% # Number of insts issued each cycle
system.cpu.iq.issued_per_cycle::1                   4     11.43%     85.71% # Number of insts issued each cycle
system.cpu.iq.issued_per_cycle::2                   5     14.29%    100.00% # Number of insts issued each cycle
system.cpu.iq.issued_per_cycle::3                   0      0.00%    100.00% # Number of insts issued each cycle
system.cpu.iq.issued_per_cycle::4                   0      0.00%    100.00% # Number of insts issued each cycle
system.cpu.iq.issued_per_cycle::5                   0      0.00%    100.00% # Number of insts issued each cycle
system.cpu.iq.issued_per_cycle::6                   0      0.00%    100.00% # Number of insts issued each cycle
system.cpu.iq.issued_per_cycle::7                   0      0.00%    100.00% # Number of insts issued each cycle
system.cpu.iq.issued_per_cycle::8                   0      0.00%    100.00% # Number of insts issued each cycle
system.cpu.iq.issued_per_cycle::overflows            0      0.00%    100.00% # Number of insts issued each cycle
system.cpu.iq.issued_per_cycle::min_value            0                       # Number of insts issued each cycle
system.cpu.iq.issued_per_cycle::max_value            2                       # Number of insts issued each cycle
system.cpu.iq.issued_per_cycle::total              35                       # Number of insts issued each cycle
system.cpu.iq.fu_full::No_OpClass                   0                       # attempts to use FU when none available
system.cpu.iq.fu_full::IntAlu                       0                       # attempts to use FU when none available
system.cpu.iq.fu_full::IntMult                      0                       # attempts to use FU when none available
system.cpu.iq.fu_full::IntDiv                       0                       # attempts to use FU when none available
system.cpu.iq.fu_full::FloatAdd                     0                       # attempts to use FU when none available
system.cpu.iq.fu_full::FloatCmp                     0                       # attempts to use FU when none available
system.cpu.iq.fu_full::FloatCvt                     0                       # attempts to use FU when none available
system.cpu.iq.fu_full::FloatMult                    0                       # attempts to use FU when none available
system.cpu.iq.fu_full::FloatMultAcc                 0                       # attempts to use FU when none available
system.cpu.iq.fu_full::FloatDiv                     0                       # attempts to use FU when none available
system.cpu.iq.fu_full::FloatMisc                    0                       # attempts to use FU when none available
system.cpu.iq.fu_full::FloatSqrt                    0                       # attempts to use FU when none available
system.cpu.iq.fu_full::SimdAdd                      0                       # attempts to use FU when none available
system.cpu.iq.fu_full::SimdAddAcc                   0                       # attempts to use FU when none available
system.cpu.iq.fu_full::SimdAlu                      0                       # attempts to use FU when none available
[...]
system.switch_cpus_1.iq.int_inst_queue_wakeup_accesses    232163372                       # Number of integer instruction queue wakeup accesses
system.switch_cpus_1.iq.fp_inst_queue_reads          482                       # Number of floating instruction queue reads
system.switch_cpus_1.iq.fp_inst_queue_writes          412                       # Number of floating instruction queue writes
system.switch_cpus_1.iq.fp_inst_queue_wakeup_accesses          228                       # Number of floating instruction queue wakeup accesses
system.switch_cpus_1.iq.int_alu_accesses    244278329                       # Number of integer alu accesses
system.switch_cpus_1.iq.fp_alu_accesses           242                       # Number of floating point alu accesses
system.switch_cpus_1.iew.lsq.thread0.forwLoads     22259029                       # Number of loads that had data forwarded from stores
system.switch_cpus_1.iew.lsq.thread0.invAddrLoads            0                       # Number of loads ignored due to an invalid address
system.switch_cpus_1.iew.lsq.thread0.squashedLoads     14697677                       # Number of loads squashed
system.switch_cpus_1.iew.lsq.thread0.ignoredResponses       122212                       # Number of memory responses ignored because the instruction is squashed
system.switch_cpus_1.iew.lsq.thread0.memOrderViolation         3787                       # Number of memory ordering violations
system.switch_cpus_1.iew.lsq.thread0.squashedStores      6970915                       # Number of stores squashed
system.switch_cpus_1.iew.lsq.thread0.invAddrSwpfs            0                       # Number of software prefetches ignored due to an invalid address
system.switch_cpus_1.iew.lsq.thread0.blockedLoads            0                       # Number of blocked loads due to partial load-store forwarding
system.switch_cpus_1.iew.lsq.thread0.rescheduledLoads            0                       # Number of loads that were rescheduled
system.switch_cpus_1.iew.lsq.thread0.cacheBlocked        17091                       # Number of times an access to memory failed due to the cache being blocked
system.switch_cpus_1.iew.iewIdleCycles              0                       # Number of cycles IEW is idle
system.switch_cpus_1.iew.iewSquashCycles      1070204                       # Number of cycles IEW is squashing
system.switch_cpus_1.iew.iewBlockCycles       6706457                       # Number of cycles IEW is blocking
system.switch_cpus_1.iew.iewUnblockCycles      9991172                       # Number of cycles IEW is unblocking
system.switch_cpus_1.iew.iewDispatchedInsts    251810908                       # Number of instructions dispatched to IQ
system.switch_cpus_1.iew.iewDispSquashedInsts        98937                       # Number of squashed instructions skipped by dispatch
system.switch_cpus_1.iew.iewDispLoadInsts     73769856                       # Number of dispatched load instructions
system.switch_cpus_1.iew.iewDispStoreInsts     34509337                       # Number of dispatched store instructions
system.switch_cpus_1.iew.iewDispNonSpecInsts           44                       # Number of dispatched non-speculative instructions
system.switch_cpus_1.iew.iewIQFullEvents        54803                       # Number of times the IQ has become full, causing a stall
system.switch_cpus_1.iew.iewLSQFullEvents      9948999                       # Number of times the LSQ has become full, causing a stall
system.switch_cpus_1.iew.memOrderViolationEvents         3787                       # Number of memory order violations
system.switch_cpus_1.iew.predictedTakenIncorrect       599119                       # Number of branches that were predicted taken incorrectly
system.switch_cpus_1.iew.predictedNotTakenIncorrect       427158                       # Number of branches that were predicted not taken incorrectly
system.switch_cpus_1.iew.branchMispredicts      1026277                       # Number of branch mispredicts detected at execute
system.switch_cpus_1.iew.iewExecutedInsts    234187486                       # Number of executed instructions
system.switch_cpus_1.iew.iewExecLoadInsts     69860518                       # Number of load instructions executed
system.switch_cpus_1.iew.iewExecSquashedInsts      2406509                       # Number of squashed instructions skipped in execute
system.switch_cpus_1.iew.exec_swp                   0                       # number of swp insts executed
system.switch_cpus_1.iew.exec_nop             1350906                       # number of nop insts executed
system.switch_cpus_1.iew.exec_refs          102723345                       # number of memory reference insts executed
system.switch_cpus_1.iew.exec_branches       23575464                       # Number of branches executed
system.switch_cpus_1.iew.exec_stores         32862827                       # Number of stores executed
system.switch_cpus_1.iew.exec_rate           2.283453                       # Inst execution rate
system.switch_cpus_1.iew.wb_sent            232976196                       # cumulative count of insts sent to commit
system.switch_cpus_1.iew.wb_count           232163600                       # cumulative count of insts written-back
system.switch_cpus_1.iew.wb_producers       132097551                       # num instructions producing a value
system.switch_cpus_1.iew.wb_consumers       183079978                       # num instructions consuming a value
system.switch_cpus_1.iew.wb_rate             2.263719                       # insts written-back per cycle
system.switch_cpus_1.iew.wb_fanout           0.721529                       # average fanout of values written-back
system.switch_cpus_1.commit.commitSquashedInsts     48936641                       # The number of squashed insts skipped by commit
system.switch_cpus_1.commit.commitNonSpecStalls           40                       # The number of times commit has been forced to stall to communicate backwards
system.switch_cpus_1.commit.branchMispredicts       995976                       # The number of times a branch was mispredicted
system.switch_cpus_1.commit.committed_per_cycle::samples     95928836                       # Number of insts commited each cycle
system.switch_cpus_1.commit.committed_per_cycle::mean     2.095621                       # Number of insts commited each cycle
system.switch_cpus_1.commit.committed_per_cycle::stdev     3.067394                       # Number of insts commited each cycle
system.switch_cpus_1.commit.committed_per_cycle::underflows            0      0.00%      0.00% # Number of insts commited each cycle
system.switch_cpus_1.commit.committed_per_cycle::0     46446015     48.42%     48.42% # Number of insts commited each cycle
system.switch_cpus_1.commit.committed_per_cycle::1     22393227     23.34%     71.76% # Number of insts commited each cycle
system.switch_cpus_1.commit.committed_per_cycle::2      2188598      2.28%     74.04% # Number of insts commited each cycle
system.switch_cpus_1.commit.committed_per_cycle::3      2224277      2.32%     76.36% # Number of insts commited each cycle
system.switch_cpus_1.commit.committed_per_cycle::4      1565794      1.63%     77.99% # Number of insts commited each cycle
system.switch_cpus_1.commit.committed_per_cycle::5      1220659      1.27%     79.27% # Number of insts commited each cycle
system.switch_cpus_1.commit.committed_per_cycle::6      1338638      1.40%     80.66% # Number of insts commited each cycle
system.switch_cpus_1.commit.committed_per_cycle::7      1224091      1.28%     81.94% # Number of insts commited each cycle
system.switch_cpus_1.commit.committed_per_cycle::8     17327537     18.06%    100.00% # Number of insts commited each cycle
system.switch_cpus_1.commit.committed_per_cycle::overflows            0      0.00%    100.00% # Number of insts commited each cycle
system.switch_cpus_1.commit.committed_per_cycle::min_value            0                       # Number of insts commited each cycle
system.switch_cpus_1.commit.committed_per_cycle::max_value            8                       # Number of insts commited each cycle
system.switch_cpus_1.commit.committed_per_cycle::total     95928836                       # Number of insts commited each cycle
system.switch_cpus_1.commit.committedInsts    201030486                       # Number of instructions committed
system.switch_cpus_1.commit.committedOps    201030486                       # Number of ops (including micro ops) committed
system.switch_cpus_1.commit.swp_count               0                       # Number of s/w prefetches committed
system.switch_cpus_1.commit.refs             86610567                       # Number of memory references committed
system.switch_cpus_1.commit.loads            59072162                       # Number of loads committed
system.switch_cpus_1.commit.membars                20                       # Number of memory barriers committed
system.switch_cpus_1.commit.branches         20593420                       # Number of branches committed
system.switch_cpus_1.commit.fp_insts              192                       # Number of committed floating point instructions.
system.switch_cpus_1.commit.int_insts       199984040                       # Number of committed integer instructions.
system.switch_cpus_1.commit.function_calls      2446547                       # Number of function calls committed.
system.switch_cpus_1.commit.op_class_0::No_OpClass      1030482      0.51%      0.51% # Class of committed instruction
system.switch_cpus_1.commit.op_class_0::IntAlu    107886459     53.67%     54.18% # Class of committed instruction
system.switch_cpus_1.commit.op_class_0::IntMult      5502790      2.74%     56.92% # Class of committed instruction
system.switch_cpus_1.commit.op_class_0::IntDiv            0      0.00%     56.92% # Class of committed instruction
system.switch_cpus_1.commit.op_class_0::FloatAdd           80      0.00%     56.92% # Class of committed instruction
system.switch_cpus_1.commit.op_class_0::FloatCmp            0      0.00%     56.92% # Class of committed instruction
system.switch_cpus_1.commit.op_class_0::FloatCvt           56      0.00%     56.92% # Class of committed instruction
system.switch_cpus_1.commit.op_class_0::FloatMult           32      0.00%     56.92% # Class of committed instruction
system.switch_cpus_1.commit.op_class_0::FloatMultAcc            0      0.00%     56.92% # Class of committed instruction
system.switch_cpus_1.commit.op_class_0::FloatDiv            0      0.00%     56.92% # Class of committed instruction
system.switch_cpus_1.commit.op_class_0::FloatMisc            0      0.00%     56.92% # Class of committed instruction
system.switch_cpus_1.commit.op_class_0::FloatSqrt            0      0.00%     56.92% # Class of committed instruction
system.switch_cpus_1.commit.op_class_0::SimdAdd            0      0.00%     56.92% # Class of committed instruction
system.switch_cpus_1.commit.op_class_0::SimdAddAcc            0      0.00%     56.92% # Class of committed instruction
system.switch_cpus_1.commit.op_class_0::SimdAlu            0      0.00%     56.92% # Class of committed instruction
system.switch_cpus_1.commit.op_class_0::SimdCmp            0      0.00%     56.92% # Class of committed instruction
system.switch_cpus_1.commit.op_class_0::SimdCvt            0      0.00%     56.92% # Class of committed instruction
system.switch_cpus_1.commit.op_class_0::SimdMisc            0      0.00%     56.92% # Class of committed instruction
system.switch_cpus_1.commit.op_class_0::SimdMult            0      0.00%     56.92% # Class of committed instruction
system.switch_cpus_1.commit.op_class_0::SimdMultAcc            0      0.00%     56.92% # Class of committed instruction
system.switch_cpus_1.commit.op_class_0::SimdShift            0      0.00%     56.92% # Class of committed instruction
system.switch_cpus_1.commit.op_class_0::SimdShiftAcc            0      0.00%     56.92% # Class of committed instruction
system.switch_cpus_1.commit.op_class_0::SimdSqrt            0      0.00%     56.92% # Class of committed instruction
system.switch_cpus_1.commit.op_class_0::SimdFloatAdd            0      0.00%     56.92% # Class of committed instruction
system.switch_cpus_1.commit.op_class_0::SimdFloatAlu            0      0.00%     56.92% # Class of committed instruction
system.switch_cpus_1.commit.op_class_0::SimdFloatCmp            0      0.00%     56.92% # Class of committed instruction
system.switch_cpus_1.commit.op_class_0::SimdFloatCvt            0      0.00%     56.92% # Class of committed instruction
system.switch_cpus_1.commit.op_class_0::SimdFloatDiv            0      0.00%     56.92% # Class of committed instruction
system.switch_cpus_1.commit.op_class_0::SimdFloatMisc            0      0.00%     56.92% # Class of committed instruction
system.switch_cpus_1.commit.op_class_0::SimdFloatMult            0      0.00%     56.92% # Class of committed instruction
system.switch_cpus_1.commit.op_class_0::SimdFloatMultAcc            0      0.00%     56.92% # Class of committed instruction
system.switch_cpus_1.commit.op_class_0::SimdFloatSqrt            0      0.00%     56.92% # Class of committed instruction
system.switch_cpus_1.commit.op_class_0::MemRead     59072158     29.38%     86.30% # Class of committed instruction
system.switch_cpus_1.commit.op_class_0::MemWrite     27538405     13.70%    100.00% # Class of committed instruction
system.switch_cpus_1.commit.op_class_0::FloatMemRead           24      0.00%    100.00% # Class of committed instruction
system.switch_cpus_1.commit.op_class_0::FloatMemWrite            0      0.00%    100.00% # Class of committed instruction
system.switch_cpus_1.commit.op_class_0::IprAccess            0      0.00%    100.00% # Class of committed instruction
system.switch_cpus_1.commit.op_class_0::InstPrefetch            0      0.00%    100.00% # Class of committed instruction
system.switch_cpus_1.commit.op_class_0::total    201030486                       # Class of committed instruction
system.switch_cpus_1.commit.bw_lim_events     17327537                       # number cycles where commit BW limit reached
system.switch_cpus_1.rob.rob_reads          327648962                       # The number of ROB reads
system.switch_cpus_1.rob.rob_writes         506558234                       # The number of ROB writes
system.switch_cpus_1.timesIdled                    23                       # Number of times that the entire CPU went into an idle state and unscheduled itself
system.switch_cpus_1.idleCycles                  8297                       # Total number of cycles that the CPU has spent unscheduled due to idling
system.switch_cpus_1.committedInsts         200000004                       # Number of Instructions Simulated
system.switch_cpus_1.committedOps           200000004                       # Number of Ops (including micro ops) Simulated
system.switch_cpus_1.cpi                     0.512792                       # CPI: Cycles Per Instruction
system.switch_cpus_1.cpi_total               0.512792                       # CPI: Total CPI of All Threads
system.switch_cpus_1.ipc                     1.950107                       # IPC: Instructions Per Cycle
system.switch_cpus_1.ipc_total               1.950107                       # IPC: Total IPC of All Threads
system.switch_cpus_1.int_regfile_reads      341178896                       # number of integer regfile reads
system.switch_cpus_1.int_regfile_writes     179510640                       # number of integer regfile writes
system.switch_cpus_1.fp_regfile_reads             211                       # number of floating regfile reads
system.switch_cpus_1.fp_regfile_writes            242                       # number of floating regfile writes
system.switch_cpus_1.misc_regfile_reads            45                       # number of misc regfile reads
system.switch_cpus_1.misc_regfile_writes           40                       # number of misc regfile writes
system.tol3bus.snoop_filter.tot_requests      5103050                       # Total number of requests made to the snoop filter.
system.tol3bus.snoop_filter.hit_single_requests      2549398                       # Number of requests hitting in the snoop filter with a single holder of the requested data.
system.tol3bus.snoop_filter.hit_multi_requests            0                       # Number of requests hitting in the snoop filter with multiple (>1) holders of the requested data.
system.tol3bus.snoop_filter.tot_snoops              0                       # Total number of snoops made to the snoop filter.
system.tol3bus.snoop_filter.hit_single_snoops            0                       # Number of snoops hitting in the snoop filter with a single holder of the requested data.
system.tol3bus.snoop_filter.hit_multi_snoops            0                       # Number of snoops hitting in the snoop filter with multiple (>1) holders of the requested data.
system.tol3bus.pwrStateResidencyTicks::UNDEFINED 110830964345748                       # Cumulative time (in ticks) in various power states
system.tol3bus.trans_dist::ReadResp           2301819                       # Transaction distribution
system.tol3bus.trans_dist::WritebackDirty      1993194                       # Transaction distribution
system.tol3bus.trans_dist::CleanEvict          556200                       # Transaction distribution
system.tol3bus.trans_dist::UpgradeReq               4                       # Transaction distribution
system.tol3bus.trans_dist::UpgradeResp              4                       # Transaction distribution
system.tol3bus.trans_dist::ReadExReq           251833                       # Transaction distribution
system.tol3bus.trans_dist::ReadExResp          251833                       # Transaction distribution
system.tol3bus.trans_dist::ReadSharedReq      2301819                       # Transaction distribution
system.tol3bus.pkt_count_system.cpu.l2.mem_side::system.l3.cpu_side      7656706                       # Packet count per connected master and slave (bytes)
system.tol3bus.pkt_size_system.cpu.l2.mem_side::system.l3.cpu_side    290998144                       # Cumulative packet size per connected master and slave (bytes)
system.tol3bus.snoops                               0                       # Total snoops (count)
system.tol3bus.snoopTraffic                         0                       # Total snoop traffic (bytes)
system.tol3bus.snoop_fanout::samples          2553656                       # Request fanout histogram
system.tol3bus.snoop_fanout::mean                   0                       # Request fanout histogram
system.tol3bus.snoop_fanout::stdev                  0                       # Request fanout histogram
system.tol3bus.snoop_fanout::underflows             0      0.00%      0.00% # Request fanout histogram
system.tol3bus.snoop_fanout::0                2553656    100.00%    100.00% # Request fanout histogram
system.tol3bus.snoop_fanout::1                      0      0.00%    100.00% # Request fanout histogram
system.tol3bus.snoop_fanout::overflows              0      0.00%    100.00% # Request fanout histogram
system.tol3bus.snoop_fanout::min_value              0                       # Request fanout histogram
system.tol3bus.snoop_fanout::max_value              0                       # Request fanout histogram
system.tol3bus.snoop_fanout::total            2553656                       # Request fanout histogram
system.tol3bus.reqLayer0.occupancy         2363049252                       # Layer occupancy (ticks)
system.tol3bus.reqLayer0.utilization              0.2                       # Layer utilization (%)
system.tol3bus.respLayer0.occupancy        1700733564                       # Layer occupancy (ticks)
system.tol3bus.respLayer0.utilization             0.2                       # Layer utilization (%)

---------- End Simulation Statistics   ----------
