
---------- Begin Simulation Statistics ----------
sim_seconds                                  1.061879                       # Number of seconds simulated
sim_ticks                                1061878769955                       # Number of ticks simulated
final_tick                               31073292931005                       # Number of ticks from beginning of simulation (restored from checkpoints and never reset)
sim_freq                                 1000000000000                       # Frequency of simulated ticks
host_inst_rate                                 572430                       # Simulator instruction rate (inst/s)
host_op_rate                                   572430                       # Simulator op (including micro ops) rate (op/s)
host_tick_rate                              506542635                       # Simulator tick rate (ticks/s)
host_mem_usage                                2424812                       # Number of bytes of host memory used
host_seconds                                  2096.33                       # Real time elapsed on the host
sim_insts                                  1200000007                       # Number of instructions simulated
sim_ops                                    1200000007                       # Number of ops (including micro ops) simulated
system.voltage_domain.voltage                       1                       # Voltage in Volts
system.clk_domain.clock                          1000                       # Clock period in ticks
system.mem_ctrls0.pwrStateResidencyTicks::UNDEFINED 31073292931005                       # Cumulative time (in ticks) in various power states
system.mem_ctrls0.bytes_read::cpu.inst             64                       # Number of bytes read from this memory
system.mem_ctrls0.bytes_read::switch_cpus.inst       139136                       # Number of bytes read from this memory
system.mem_ctrls0.bytes_read::switch_cpus.data      3624512                       # Number of bytes read from this memory
system.mem_ctrls0.bytes_read::switch_cpus_1.inst       110272                       # Number of bytes read from this memory
system.mem_ctrls0.bytes_read::switch_cpus_1.data      1560768                       # Number of bytes read from this memory
system.mem_ctrls0.bytes_read::total           5434752                       # Number of bytes read from this memory
system.mem_ctrls0.bytes_inst_read::cpu.inst           64                       # Number of instructions bytes read from this memory
system.mem_ctrls0.bytes_inst_read::switch_cpus.inst       139136                       # Number of instructions bytes read from this memory
system.mem_ctrls0.bytes_inst_read::switch_cpus_1.inst       110272                       # Number of instructions bytes read from this memory
system.mem_ctrls0.bytes_inst_read::total       249472                       # Number of instructions bytes read from this memory
system.mem_ctrls0.bytes_written::writebacks       720832                       # Number of bytes written to this memory
system.mem_ctrls0.bytes_written::total         720832                       # Number of bytes written to this memory
system.mem_ctrls0.num_reads::cpu.inst               1                       # Number of read requests responded to by this memory
system.mem_ctrls0.num_reads::switch_cpus.inst         2174                       # Number of read requests responded to by this memory
system.mem_ctrls0.num_reads::switch_cpus.data        56633                       # Number of read requests responded to by this memory
system.mem_ctrls0.num_reads::switch_cpus_1.inst         1723                       # Number of read requests responded to by this memory
system.mem_ctrls0.num_reads::switch_cpus_1.data        24387                       # Number of read requests responded to by this memory
system.mem_ctrls0.num_reads::total              84918                       # Number of read requests responded to by this memory
system.mem_ctrls0.num_writes::writebacks        11263                       # Number of write requests responded to by this memory
system.mem_ctrls0.num_writes::total             11263                       # Number of write requests responded to by this memory
system.mem_ctrls0.bw_read::cpu.inst                60                       # Total read bandwidth from this memory (bytes/s)
system.mem_ctrls0.bw_read::switch_cpus.inst       131028                       # Total read bandwidth from this memory (bytes/s)
system.mem_ctrls0.bw_read::switch_cpus.data      3413301                       # Total read bandwidth from this memory (bytes/s)
system.mem_ctrls0.bw_read::switch_cpus_1.inst       103846                       # Total read bandwidth from this memory (bytes/s)
system.mem_ctrls0.bw_read::switch_cpus_1.data      1469818                       # Total read bandwidth from this memory (bytes/s)
system.mem_ctrls0.bw_read::total              5118053                       # Total read bandwidth from this memory (bytes/s)
system.mem_ctrls0.bw_inst_read::cpu.inst           60                       # Instruction read bandwidth from this memory (bytes/s)
system.mem_ctrls0.bw_inst_read::switch_cpus.inst       131028                       # Instruction read bandwidth from this memory (bytes/s)
system.mem_ctrls0.bw_inst_read::switch_cpus_1.inst       103846                       # Instruction read bandwidth from this memory (bytes/s)
system.mem_ctrls0.bw_inst_read::total          234935                       # Instruction read bandwidth from this memory (bytes/s)
system.mem_ctrls0.bw_write::writebacks         678827                       # Write bandwidth from this memory (bytes/s)
system.mem_ctrls0.bw_write::total              678827                       # Write bandwidth from this memory (bytes/s)
system.mem_ctrls0.bw_total::writebacks         678827                       # Total bandwidth to/from this memory (bytes/s)
system.mem_ctrls0.bw_total::cpu.inst               60                       # Total bandwidth to/from this memory (bytes/s)
system.mem_ctrls0.bw_total::switch_cpus.inst       131028                       # Total bandwidth to/from this memory (bytes/s)
system.mem_ctrls0.bw_total::switch_cpus.data      3413301                       # Total bandwidth to/from this memory (bytes/s)
system.mem_ctrls0.bw_total::switch_cpus_1.inst       103846                       # Total bandwidth to/from this memory (bytes/s)
system.mem_ctrls0.bw_total::switch_cpus_1.data      1469818                       # Total bandwidth to/from this memory (bytes/s)
system.mem_ctrls0.bw_total::total             5796880                       # Total bandwidth to/from this memory (bytes/s)
system.mem_ctrls0.readReqs                      84918                       # Number of read requests accepted
system.mem_ctrls0.writeReqs                     11263                       # Number of write requests accepted
system.mem_ctrls0.readBursts                    84918                       # Number of DRAM read bursts, including those serviced by the write queue
system.mem_ctrls0.writeBursts                   11263                       # Number of DRAM write bursts, including those merged in the write queue
system.mem_ctrls0.bytesReadDRAM               5431488                       # Total number of bytes read from DRAM
system.mem_ctrls0.bytesReadWrQ                   3264                       # Total number of bytes read from write queue
system.mem_ctrls0.bytesWritten                 719424                       # Total number of bytes written to DRAM
system.mem_ctrls0.bytesReadSys                5434752                       # Total read bytes from the system interface side
system.mem_ctrls0.bytesWrittenSys              720832                       # Total written bytes from the system interface side
system.mem_ctrls0.servicedByWrQ                    51                       # Number of DRAM read bursts serviced by the write queue
system.mem_ctrls0.mergedWrBursts                    0                       # Number of DRAM write bursts merged with an existing one
system.mem_ctrls0.neitherReadNorWriteReqs            0                       # Number of requests that are neither read nor write
system.mem_ctrls0.perBankRdBursts::0             5329                       # Per bank write bursts
system.mem_ctrls0.perBankRdBursts::1             5382                       # Per bank write bursts
system.mem_ctrls0.perBankRdBursts::2             5945                       # Per bank write bursts
system.mem_ctrls0.perBankRdBursts::3             5630                       # Per bank write bursts
system.mem_ctrls0.perBankRdBursts::4             5123                       # Per bank write bursts
system.mem_ctrls0.perBankRdBursts::5             5168                       # Per bank write bursts
system.mem_ctrls0.perBankRdBursts::6             4816                       # Per bank write bursts
system.mem_ctrls0.perBankRdBursts::7             4902                       # Per bank write bursts
system.mem_ctrls0.perBankRdBursts::8             4980                       # Per bank write bursts
system.mem_ctrls0.perBankRdBursts::9             5097                       # Per bank write bursts
system.mem_ctrls0.perBankRdBursts::10            4890                       # Per bank write bursts
system.mem_ctrls0.perBankRdBursts::11            4735                       # Per bank write bursts
system.mem_ctrls0.perBankRdBursts::12            5955                       # Per bank write bursts
system.mem_ctrls0.perBankRdBursts::13            5505                       # Per bank write bursts
system.mem_ctrls0.perBankRdBursts::14            5586                       # Per bank write bursts
system.mem_ctrls0.perBankRdBursts::15            5824                       # Per bank write bursts
system.mem_ctrls0.perBankWrBursts::0              688                       # Per bank write bursts
system.mem_ctrls0.perBankWrBursts::1              753                       # Per bank write bursts
system.mem_ctrls0.perBankWrBursts::2              801                       # Per bank write bursts
system.mem_ctrls0.perBankWrBursts::3              734                       # Per bank write bursts
system.mem_ctrls0.perBankWrBursts::4              690                       # Per bank write bursts
system.mem_ctrls0.perBankWrBursts::5              655                       # Per bank write bursts
system.mem_ctrls0.perBankWrBursts::6              540                       # Per bank write bursts
system.mem_ctrls0.perBankWrBursts::7              677                       # Per bank write bursts
system.mem_ctrls0.perBankWrBursts::8              662                       # Per bank write bursts
system.mem_ctrls0.perBankWrBursts::9              511                       # Per bank write bursts
system.mem_ctrls0.perBankWrBursts::10             529                       # Per bank write bursts
system.mem_ctrls0.perBankWrBursts::11             664                       # Per bank write bursts
system.mem_ctrls0.perBankWrBursts::12             946                       # Per bank write bursts
system.mem_ctrls0.perBankWrBursts::13             810                       # Per bank write bursts
system.mem_ctrls0.perBankWrBursts::14             841                       # Per bank write bursts
system.mem_ctrls0.perBankWrBursts::15             740                       # Per bank write bursts
system.mem_ctrls0.numRdRetry                        0                       # Number of times read queue was full causing retry
system.mem_ctrls0.numWrRetry                        0                       # Number of times write queue was full causing retry
system.mem_ctrls0.totGap                 1061869583817                       # Total gap between requests
system.mem_ctrls0.readPktSize::0                    0                       # Read request sizes (log2)
system.mem_ctrls0.readPktSize::1                    0                       # Read request sizes (log2)
system.mem_ctrls0.readPktSize::2                    0                       # Read request sizes (log2)
system.mem_ctrls0.readPktSize::3                    0                       # Read request sizes (log2)
system.mem_ctrls0.readPktSize::4                    0                       # Read request sizes (log2)
system.mem_ctrls0.readPktSize::5                    0                       # Read request sizes (log2)
system.mem_ctrls0.readPktSize::6                84918                       # Read request sizes (log2)
system.mem_ctrls0.writePktSize::0                   0                       # Write request sizes (log2)
system.mem_ctrls0.writePktSize::1                   0                       # Write request sizes (log2)
system.mem_ctrls0.writePktSize::2                   0                       # Write request sizes (log2)
system.mem_ctrls0.writePktSize::3                   0                       # Write request sizes (log2)
system.mem_ctrls0.writePktSize::4                   0                       # Write request sizes (log2)
system.mem_ctrls0.writePktSize::5                   0                       # Write request sizes (log2)
system.mem_ctrls0.writePktSize::6               11263                       # Write request sizes (log2)
system.mem_ctrls0.rdQLenPdf::0                  82352                       # What read queue length does an incoming req see
system.mem_ctrls0.rdQLenPdf::1                   2408                       # What read queue length does an incoming req see
system.mem_ctrls0.rdQLenPdf::2                    101                       # What read queue length does an incoming req see
system.mem_ctrls0.rdQLenPdf::3                      6                       # What read queue length does an incoming req see
system.mem_ctrls0.rdQLenPdf::4                      0                       # What read queue length does an incoming req see
system.mem_ctrls0.rdQLenPdf::5                      0                       # What read queue length does an incoming req see
system.mem_ctrls0.rdQLenPdf::6                      0                       # What read queue length does an incoming req see
system.mem_ctrls0.rdQLenPdf::7                      0                       # What read queue length does an incoming req see
system.mem_ctrls0.rdQLenPdf::8                      0                       # What read queue length does an incoming req see
system.mem_ctrls0.rdQLenPdf::9                      0                       # What read queue length does an incoming req see
system.mem_ctrls0.rdQLenPdf::10                     0                       # What read queue length does an incoming req see
system.mem_ctrls0.rdQLenPdf::11                     0                       # What read queue length does an incoming req see
system.mem_ctrls0.rdQLenPdf::12                     0                       # What read queue length does an incoming req see
system.mem_ctrls0.rdQLenPdf::13                     0                       # What read queue length does an incoming req see
system.mem_ctrls0.rdQLenPdf::14                     0                       # What read queue length does an incoming req see
system.mem_ctrls0.rdQLenPdf::15                     0                       # What read queue length does an incoming req see
system.mem_ctrls0.rdQLenPdf::16                     0                       # What read queue length does an incoming req see
system.mem_ctrls0.rdQLenPdf::17                     0                       # What read queue length does an incoming req see
system.mem_ctrls0.rdQLenPdf::18                     0                       # What read queue length does an incoming req see
system.mem_ctrls0.rdQLenPdf::19                     0                       # What read queue length does an incoming req see
system.mem_ctrls0.rdQLenPdf::20                     0                       # What read queue length does an incoming req see
system.mem_ctrls0.rdQLenPdf::21                     0                       # What read queue length does an incoming req see
system.mem_ctrls0.rdQLenPdf::22                     0                       # What read queue length does an incoming req see
system.mem_ctrls0.rdQLenPdf::23                     0                       # What read queue length does an incoming req see
system.mem_ctrls0.rdQLenPdf::24                     0                       # What read queue length does an incoming req see
system.mem_ctrls0.rdQLenPdf::25                     0                       # What read queue length does an incoming req see
system.mem_ctrls0.rdQLenPdf::26                     0                       # What read queue length does an incoming req see
system.mem_ctrls0.rdQLenPdf::27                     0                       # What read queue length does an incoming req see
system.mem_ctrls0.rdQLenPdf::28                     0                       # What read queue length does an incoming req see
system.mem_ctrls0.rdQLenPdf::29                     0                       # What read queue length does an incoming req see
system.mem_ctrls0.rdQLenPdf::30                     0                       # What read queue length does an incoming req see
system.mem_ctrls0.rdQLenPdf::31                     0                       # What read queue length does an incoming req see
system.mem_ctrls0.wrQLenPdf::0                      2                       # What write queue length does an incoming req see
system.mem_ctrls0.wrQLenPdf::1                      2                       # What write queue length does an incoming req see
system.mem_ctrls0.wrQLenPdf::2                      2                       # What write queue length does an incoming req see
system.mem_ctrls0.wrQLenPdf::3                      2                       # What write queue length does an incoming req see
system.mem_ctrls0.wrQLenPdf::4                      2                       # What write queue length does an incoming req see
system.mem_ctrls0.wrQLenPdf::5                      2                       # What write queue length does an incoming req see
system.mem_ctrls0.wrQLenPdf::6                      2                       # What write queue length does an incoming req see
system.mem_ctrls0.wrQLenPdf::7                      2                       # What write queue length does an incoming req see
system.mem_ctrls0.wrQLenPdf::8                      2                       # What write queue length does an incoming req see
system.mem_ctrls0.wrQLenPdf::9                      2                       # What write queue length does an incoming req see
system.mem_ctrls0.wrQLenPdf::10                     2                       # What write queue length does an incoming req see
system.mem_ctrls0.wrQLenPdf::11                     2                       # What write queue length does an incoming req see
system.mem_ctrls0.wrQLenPdf::12                     2                       # What write queue length does an incoming req see
system.mem_ctrls0.wrQLenPdf::13                     2                       # What write queue length does an incoming req see
system.mem_ctrls0.wrQLenPdf::14                     2                       # What write queue length does an incoming req see
system.mem_ctrls0.wrQLenPdf::15                   398                       # What write queue length does an incoming req see
system.mem_ctrls0.wrQLenPdf::16                   413                       # What write queue length does an incoming req see
system.mem_ctrls0.wrQLenPdf::17                   632                       # What write queue length does an incoming req see
system.mem_ctrls0.wrQLenPdf::18                   650                       # What write queue length does an incoming req see
system.mem_ctrls0.wrQLenPdf::19                   653                       # What write queue length does an incoming req see
system.mem_ctrls0.wrQLenPdf::20                   656                       # What write queue length does an incoming req see
system.mem_ctrls0.wrQLenPdf::21                   653                       # What write queue length does an incoming req see
system.mem_ctrls0.wrQLenPdf::22                   652                       # What write queue length does an incoming req see
system.mem_ctrls0.wrQLenPdf::23                   653                       # What write queue length does an incoming req see
system.mem_ctrls0.wrQLenPdf::24                   651                       # What write queue length does an incoming req see
system.mem_ctrls0.wrQLenPdf::25                   651                       # What write queue length does an incoming req see
system.mem_ctrls0.wrQLenPdf::26                   656                       # What write queue length does an incoming req see
system.mem_ctrls0.wrQLenPdf::27                   650                       # What write queue length does an incoming req see
system.mem_ctrls0.wrQLenPdf::28                   655                       # What write queue length does an incoming req see
system.mem_ctrls0.wrQLenPdf::29                   655                       # What write queue length does an incoming req see
system.mem_ctrls0.wrQLenPdf::30                   657                       # What write queue length does an incoming req see
system.mem_ctrls0.wrQLenPdf::31                   649                       # What write queue length does an incoming req see
system.mem_ctrls0.wrQLenPdf::32                   649                       # What write queue length does an incoming req see
system.mem_ctrls0.wrQLenPdf::33                     0                       # What write queue length does an incoming req see
system.mem_ctrls0.wrQLenPdf::34                     0                       # What write queue length does an incoming req see
system.mem_ctrls0.wrQLenPdf::35                     0                       # What write queue length does an incoming req see
system.mem_ctrls0.wrQLenPdf::36                     0                       # What write queue length does an incoming req see
system.mem_ctrls0.wrQLenPdf::37                     0                       # What write queue length does an incoming req see
system.mem_ctrls0.wrQLenPdf::38                     0                       # What write queue length does an incoming req see
system.mem_ctrls0.wrQLenPdf::39                     0                       # What write queue length does an incoming req see
system.mem_ctrls0.wrQLenPdf::40                     0                       # What write queue length does an incoming req see
system.mem_ctrls0.wrQLenPdf::41                     0                       # What write queue length does an incoming req see
system.mem_ctrls0.wrQLenPdf::42                     0                       # What write queue length does an incoming req see
system.mem_ctrls0.wrQLenPdf::43                     0                       # What write queue length does an incoming req see
system.mem_ctrls0.wrQLenPdf::44                     0                       # What write queue length does an incoming req see
system.mem_ctrls0.wrQLenPdf::45                     0                       # What write queue length does an incoming req see
system.mem_ctrls0.wrQLenPdf::46                     0                       # What write queue length does an incoming req see
system.mem_ctrls0.wrQLenPdf::47                     0                       # What write queue length does an incoming req see
system.mem_ctrls0.wrQLenPdf::48                     0                       # What write queue length does an incoming req see
system.mem_ctrls0.wrQLenPdf::49                     0                       # What write queue length does an incoming req see
system.mem_ctrls0.wrQLenPdf::50                     0                       # What write queue length does an incoming req see
system.mem_ctrls0.wrQLenPdf::51                     0                       # What write queue length does an incoming req see
system.mem_ctrls0.wrQLenPdf::52                     0                       # What write queue length does an incoming req see
system.mem_ctrls0.wrQLenPdf::53                     0                       # What write queue length does an incoming req see
system.mem_ctrls0.wrQLenPdf::54                     0                       # What write queue length does an incoming req see
system.mem_ctrls0.wrQLenPdf::55                     0                       # What write queue length does an incoming req see
system.mem_ctrls0.wrQLenPdf::56                     0                       # What write queue length does an incoming req see
system.mem_ctrls0.wrQLenPdf::57                     0                       # What write queue length does an incoming req see
system.mem_ctrls0.wrQLenPdf::58                     0                       # What write queue length does an incoming req see
system.mem_ctrls0.wrQLenPdf::59                     0                       # What write queue length does an incoming req see
system.mem_ctrls0.wrQLenPdf::60                     0                       # What write queue length does an incoming req see
system.mem_ctrls0.wrQLenPdf::61                     0                       # What write queue length does an incoming req see
system.mem_ctrls0.wrQLenPdf::62                     0                       # What write queue length does an incoming req see
system.mem_ctrls0.wrQLenPdf::63                     0                       # What write queue length does an incoming req see
system.mem_ctrls0.bytesPerActivate::samples        45690                       # Bytes accessed per row activation
system.mem_ctrls0.bytesPerActivate::mean   134.622718                       # Bytes accessed per row activation
system.mem_ctrls0.bytesPerActivate::gmean    95.854262                       # Bytes accessed per row activation
system.mem_ctrls0.bytesPerActivate::stdev   165.040301                       # Bytes accessed per row activation
system.mem_ctrls0.bytesPerActivate::0-127        30886     67.60%     67.60% # Bytes accessed per row activation
system.mem_ctrls0.bytesPerActivate::128-255         8870     19.41%     87.01% # Bytes accessed per row activation
system.mem_ctrls0.bytesPerActivate::256-383         2290      5.01%     92.02% # Bytes accessed per row activation
system.mem_ctrls0.bytesPerActivate::384-511         1325      2.90%     94.92% # Bytes accessed per row activation
system.mem_ctrls0.bytesPerActivate::512-639          807      1.77%     96.69% # Bytes accessed per row activation
system.mem_ctrls0.bytesPerActivate::640-767          497      1.09%     97.78% # Bytes accessed per row activation
system.mem_ctrls0.bytesPerActivate::768-895          309      0.68%     98.45% # Bytes accessed per row activation
system.mem_ctrls0.bytesPerActivate::896-1023          210      0.46%     98.91% # Bytes accessed per row activation
system.mem_ctrls0.bytesPerActivate::1024-1151          496      1.09%    100.00% # Bytes accessed per row activation
system.mem_ctrls0.bytesPerActivate::total        45690                       # Bytes accessed per row activation
system.mem_ctrls0.rdPerTurnAround::samples          650                       # Reads before turning the bus around for writes
system.mem_ctrls0.rdPerTurnAround::mean    130.544615                       # Reads before turning the bus around for writes
system.mem_ctrls0.rdPerTurnAround::gmean    75.435029                       # Reads before turning the bus around for writes
system.mem_ctrls0.rdPerTurnAround::stdev  1062.123521                       # Reads before turning the bus around for writes
system.mem_ctrls0.rdPerTurnAround::0-1023          649     99.85%     99.85% # Reads before turning the bus around for writes
system.mem_ctrls0.rdPerTurnAround::26624-27647            1      0.15%    100.00% # Reads before turning the bus around for writes
system.mem_ctrls0.rdPerTurnAround::total          650                       # Reads before turning the bus around for writes
system.mem_ctrls0.wrPerTurnAround::samples          650                       # Writes before turning the bus around for reads
system.mem_ctrls0.wrPerTurnAround::mean     17.293846                       # Writes before turning the bus around for reads
system.mem_ctrls0.wrPerTurnAround::gmean    17.259394                       # Writes before turning the bus around for reads
system.mem_ctrls0.wrPerTurnAround::stdev     1.113633                       # Writes before turning the bus around for reads
system.mem_ctrls0.wrPerTurnAround::16             243     37.38%     37.38% # Writes before turning the bus around for reads
system.mem_ctrls0.wrPerTurnAround::17               9      1.38%     38.77% # Writes before turning the bus around for reads
system.mem_ctrls0.wrPerTurnAround::18             373     57.38%     96.15% # Writes before turning the bus around for reads
system.mem_ctrls0.wrPerTurnAround::19              23      3.54%     99.69% # Writes before turning the bus around for reads
system.mem_ctrls0.wrPerTurnAround::20               1      0.15%     99.85% # Writes before turning the bus around for reads
system.mem_ctrls0.wrPerTurnAround::29               1      0.15%    100.00% # Writes before turning the bus around for reads
system.mem_ctrls0.wrPerTurnAround::total          650                       # Writes before turning the bus around for reads
system.mem_ctrls0.totQLat                  3436959798                       # Total ticks spent queuing
system.mem_ctrls0.totMemAccLat             5028216048                       # Total ticks spent from burst creation until serviced by the DRAM
system.mem_ctrls0.totBusLat                 424335000                       # Total ticks spent in databus transfers
system.mem_ctrls0.avgQLat                    40498.19                       # Average queueing delay per DRAM burst
system.mem_ctrls0.avgBusLat                   5000.00                       # Average bus latency per DRAM burst
system.mem_ctrls0.avgMemAccLat               59248.19                       # Average memory access latency per DRAM burst
system.mem_ctrls0.avgRdBW                        5.11                       # Average DRAM read bandwidth in MiByte/s
system.mem_ctrls0.avgWrBW                        0.68                       # Average achieved write bandwidth in MiByte/s
system.mem_ctrls0.avgRdBWSys                     5.12                       # Average system read bandwidth in MiByte/s
system.mem_ctrls0.avgWrBWSys                     0.68                       # Average system write bandwidth in MiByte/s
system.mem_ctrls0.peakBW                     12800.00                       # Theoretical peak bandwidth in MiByte/s
system.mem_ctrls0.busUtil                        0.05                       # Data bus utilization in percentage
system.mem_ctrls0.busUtilRead                    0.04                       # Data bus utilization in percentage for reads
system.mem_ctrls0.busUtilWrite                   0.01                       # Data bus utilization in percentage for writes
system.mem_ctrls0.avgRdQLen                      1.01                       # Average read queue length when enqueuing
system.mem_ctrls0.avgWrQLen                     17.94                       # Average write queue length when enqueuing
system.mem_ctrls0.readRowHits                   48620                       # Number of row buffer hits during reads
system.mem_ctrls0.writeRowHits                   1798                       # Number of row buffer hits during writes
system.mem_ctrls0.readRowHitRate                57.29                       # Row buffer hit rate for reads
system.mem_ctrls0.writeRowHitRate               15.96                       # Row buffer hit rate for writes
system.mem_ctrls0.avgGap                  11040325.88                       # Average gap between requests
system.mem_ctrls0.pageHitRate                   52.45                       # Row buffer hit rate, read and write combined
system.mem_ctrls0_0.actEnergy               165612300                       # Energy for activate commands per rank (pJ)
system.mem_ctrls0_0.preEnergy                88025025                       # Energy for precharge commands per rank (pJ)
system.mem_ctrls0_0.readEnergy              301986300                       # Energy for read commands per rank (pJ)
system.mem_ctrls0_0.writeEnergy              28908360                       # Energy for write commands per rank (pJ)
system.mem_ctrls0_0.refreshEnergy        6008106000.000001                       # Energy for refresh commands per rank (pJ)
system.mem_ctrls0_0.actBackEnergy          2136712830                       # Energy for active background per rank (pJ)
system.mem_ctrls0_0.preBackEnergy           298317600                       # Energy for precharge background per rank (pJ)
system.mem_ctrls0_0.actPowerDownEnergy    16465662390                       # Energy for active power-down per rank (pJ)
system.mem_ctrls0_0.prePowerDownEnergy     8022328320                       # Energy for precharge power-down per rank (pJ)
system.mem_ctrls0_0.selfRefreshEnergy    240899649075                       # Energy for self refresh per rank (pJ)
system.mem_ctrls0_0.totalEnergy          274416604230                       # Total energy per rank (pJ)
system.mem_ctrls0_0.averagePower           258.425548                       # Core power per rank (mW)
system.mem_ctrls0_0.totalIdleTime        1056409487508                       # Total Idle time Per DRAM Rank
system.mem_ctrls0_0.memoryStateTime::IDLE    542641360                       # Time in different power states
system.mem_ctrls0_0.memoryStateTime::REF   2552954000                       # Time in different power states
system.mem_ctrls0_0.memoryStateTime::SREF 999412880705                       # Time in different power states
system.mem_ctrls0_0.memoryStateTime::PRE_PDN  20891554802                       # Time in different power states
system.mem_ctrls0_0.memoryStateTime::ACT   2369614543                       # Time in different power states
system.mem_ctrls0_0.memoryStateTime::ACT_PDN  36109124545                       # Time in different power states
system.mem_ctrls0_1.actEnergy               160614300                       # Energy for activate commands per rank (pJ)
system.mem_ctrls0_1.preEnergy                85368525                       # Energy for precharge commands per rank (pJ)
system.mem_ctrls0_1.readEnergy              303964080                       # Energy for read commands per rank (pJ)
system.mem_ctrls0_1.writeEnergy              29769660                       # Energy for write commands per rank (pJ)
system.mem_ctrls0_1.refreshEnergy        6019784160.000001                       # Energy for refresh commands per rank (pJ)
system.mem_ctrls0_1.actBackEnergy          2144798850                       # Energy for active background per rank (pJ)
system.mem_ctrls0_1.preBackEnergy           298991040                       # Energy for precharge background per rank (pJ)
system.mem_ctrls0_1.actPowerDownEnergy    16447609350                       # Energy for active power-down per rank (pJ)
system.mem_ctrls0_1.prePowerDownEnergy     7947473760                       # Energy for precharge power-down per rank (pJ)
system.mem_ctrls0_1.selfRefreshEnergy    240979654755                       # Energy for self refresh per rank (pJ)
system.mem_ctrls0_1.totalEnergy          274419621120                       # Total energy per rank (pJ)
system.mem_ctrls0_1.averagePower           258.428390                       # Core power per rank (mW)
system.mem_ctrls0_1.totalIdleTime        1056385724279                       # Total Idle time Per DRAM Rank
system.mem_ctrls0_1.memoryStateTime::IDLE    546243504                       # Time in different power states
system.mem_ctrls0_1.memoryStateTime::REF   2558236000                       # Time in different power states
system.mem_ctrls0_1.memoryStateTime::SREF 999627222040                       # Time in different power states
system.mem_ctrls0_1.memoryStateTime::PRE_PDN  20696532050                       # Time in different power states
system.mem_ctrls0_1.memoryStateTime::ACT   2381097257                       # Time in different power states
system.mem_ctrls0_1.memoryStateTime::ACT_PDN  36069439104                       # Time in different power states
system.mem_ctrls1.pwrStateResidencyTicks::UNDEFINED 31073292931005                       # Cumulative time (in ticks) in various power states
system.mem_ctrls1.bytes_read::cpu.inst            192                       # Number of bytes read from this memory
system.mem_ctrls1.bytes_read::cpu.data            192                       # Number of bytes read from this memory
system.mem_ctrls1.bytes_read::switch_cpus.inst       137856                       # Number of bytes read from this memory
system.mem_ctrls1.bytes_read::switch_cpus.data      3635008                       # Number of bytes read from this memory
system.mem_ctrls1.bytes_read::switch_cpus_1.inst       112384                       # Number of bytes read from this memory
system.mem_ctrls1.bytes_read::switch_cpus_1.data      1561152                       # Number of bytes read from this memory
system.mem_ctrls1.bytes_read::total           5446784                       # Number of bytes read from this memory
system.mem_ctrls1.bytes_inst_read::cpu.inst          192                       # Number of instructions bytes read from this memory
system.mem_ctrls1.bytes_inst_read::switch_cpus.inst       137856                       # Number of instructions bytes read from this memory
system.mem_ctrls1.bytes_inst_read::switch_cpus_1.inst       112384                       # Number of instructions bytes read from this memory
system.mem_ctrls1.bytes_inst_read::total       250432                       # Number of instructions bytes read from this memory
system.mem_ctrls1.bytes_written::writebacks       716352                       # Number of bytes written to this memory
system.mem_ctrls1.bytes_written::total         716352                       # Number of bytes written to this memory
system.mem_ctrls1.num_reads::cpu.inst               3                       # Number of read requests responded to by this memory
system.mem_ctrls1.num_reads::cpu.data               3                       # Number of read requests responded to by this memory
system.mem_ctrls1.num_reads::switch_cpus.inst         2154                       # Number of read requests responded to by this memory
system.mem_ctrls1.num_reads::switch_cpus.data        56797                       # Number of read requests responded to by this memory
system.mem_ctrls1.num_reads::switch_cpus_1.inst         1756                       # Number of read requests responded to by this memory
system.mem_ctrls1.num_reads::switch_cpus_1.data        24393                       # Number of read requests responded to by this memory
system.mem_ctrls1.num_reads::total              85106                       # Number of read requests responded to by this memory
system.mem_ctrls1.num_writes::writebacks        11193                       # Number of write requests responded to by this memory
system.mem_ctrls1.num_writes::total             11193                       # Number of write requests responded to by this memory
system.mem_ctrls1.bw_read::cpu.inst               181                       # Total read bandwidth from this memory (bytes/s)
system.mem_ctrls1.bw_read::cpu.data               181                       # Total read bandwidth from this memory (bytes/s)
system.mem_ctrls1.bw_read::switch_cpus.inst       129823                       # Total read bandwidth from this memory (bytes/s)
system.mem_ctrls1.bw_read::switch_cpus.data      3423185                       # Total read bandwidth from this memory (bytes/s)
system.mem_ctrls1.bw_read::switch_cpus_1.inst       105835                       # Total read bandwidth from this memory (bytes/s)
system.mem_ctrls1.bw_read::switch_cpus_1.data      1470179                       # Total read bandwidth from this memory (bytes/s)
system.mem_ctrls1.bw_read::total              5129384                       # Total read bandwidth from this memory (bytes/s)
system.mem_ctrls1.bw_inst_read::cpu.inst          181                       # Instruction read bandwidth from this memory (bytes/s)
system.mem_ctrls1.bw_inst_read::switch_cpus.inst       129823                       # Instruction read bandwidth from this memory (bytes/s)
system.mem_ctrls1.bw_inst_read::switch_cpus_1.inst       105835                       # Instruction read bandwidth from this memory (bytes/s)
system.mem_ctrls1.bw_inst_read::total          235839                       # Instruction read bandwidth from this memory (bytes/s)
system.mem_ctrls1.bw_write::writebacks         674608                       # Write bandwidth from this memory (bytes/s)
system.mem_ctrls1.bw_write::total              674608                       # Write bandwidth from this memory (bytes/s)
system.mem_ctrls1.bw_total::writebacks         674608                       # Total bandwidth to/from this memory (bytes/s)
system.mem_ctrls1.bw_total::cpu.inst              181                       # Total bandwidth to/from this memory (bytes/s)
system.mem_ctrls1.bw_total::cpu.data              181                       # Total bandwidth to/from this memory (bytes/s)
system.mem_ctrls1.bw_total::switch_cpus.inst       129823                       # Total bandwidth to/from this memory (bytes/s)
system.mem_ctrls1.bw_total::switch_cpus.data      3423185                       # Total bandwidth to/from this memory (bytes/s)
system.mem_ctrls1.bw_total::switch_cpus_1.inst       105835                       # Total bandwidth to/from this memory (bytes/s)
system.mem_ctrls1.bw_total::switch_cpus_1.data      1470179                       # Total bandwidth to/from this memory (bytes/s)
system.mem_ctrls1.bw_total::total             5803992                       # Total bandwidth to/from this memory (bytes/s)
system.mem_ctrls1.readReqs                      85106                       # Number of read requests accepted
system.mem_ctrls1.writeReqs                     11193                       # Number of write requests accepted
system.mem_ctrls1.readBursts                    85106                       # Number of DRAM read bursts, including those serviced by the write queue
system.mem_ctrls1.writeBursts                   11193                       # Number of DRAM write bursts, including those merged in the write queue
system.mem_ctrls1.bytesReadDRAM               5442816                       # Total number of bytes read from DRAM
system.mem_ctrls1.bytesReadWrQ                   3968                       # Total number of bytes read from write queue
system.mem_ctrls1.bytesWritten                 715200                       # Total number of bytes written to DRAM
system.mem_ctrls1.bytesReadSys                5446784                       # Total read bytes from the system interface side
system.mem_ctrls1.bytesWrittenSys              716352                       # Total written bytes from the system interface side
system.mem_ctrls1.servicedByWrQ                    62                       # Number of DRAM read bursts serviced by the write queue
system.mem_ctrls1.mergedWrBursts                    0                       # Number of DRAM write bursts merged with an existing one
system.mem_ctrls1.neitherReadNorWriteReqs            0                       # Number of requests that are neither read nor write
system.mem_ctrls1.perBankRdBursts::0             5320                       # Per bank write bursts
system.mem_ctrls1.perBankRdBursts::1             5422                       # Per bank write bursts
system.mem_ctrls1.perBankRdBursts::2             5911                       # Per bank write bursts
system.mem_ctrls1.perBankRdBursts::3             5600                       # Per bank write bursts
system.mem_ctrls1.perBankRdBursts::4             5191                       # Per bank write bursts
system.mem_ctrls1.perBankRdBursts::5             5116                       # Per bank write bursts
system.mem_ctrls1.perBankRdBursts::6             4852                       # Per bank write bursts
system.mem_ctrls1.perBankRdBursts::7             4831                       # Per bank write bursts
system.mem_ctrls1.perBankRdBursts::8             5141                       # Per bank write bursts
system.mem_ctrls1.perBankRdBursts::9             5049                       # Per bank write bursts
system.mem_ctrls1.perBankRdBursts::10            4938                       # Per bank write bursts
system.mem_ctrls1.perBankRdBursts::11            4707                       # Per bank write bursts
system.mem_ctrls1.perBankRdBursts::12            5977                       # Per bank write bursts
system.mem_ctrls1.perBankRdBursts::13            5587                       # Per bank write bursts
system.mem_ctrls1.perBankRdBursts::14            5583                       # Per bank write bursts
system.mem_ctrls1.perBankRdBursts::15            5819                       # Per bank write bursts
system.mem_ctrls1.perBankWrBursts::0              718                       # Per bank write bursts
system.mem_ctrls1.perBankWrBursts::1              720                       # Per bank write bursts
system.mem_ctrls1.perBankWrBursts::2              771                       # Per bank write bursts
system.mem_ctrls1.perBankWrBursts::3              725                       # Per bank write bursts
system.mem_ctrls1.perBankWrBursts::4              722                       # Per bank write bursts
system.mem_ctrls1.perBankWrBursts::5              663                       # Per bank write bursts
system.mem_ctrls1.perBankWrBursts::6              537                       # Per bank write bursts
system.mem_ctrls1.perBankWrBursts::7              630                       # Per bank write bursts
system.mem_ctrls1.perBankWrBursts::8              699                       # Per bank write bursts
system.mem_ctrls1.perBankWrBursts::9              515                       # Per bank write bursts
system.mem_ctrls1.perBankWrBursts::10             589                       # Per bank write bursts
system.mem_ctrls1.perBankWrBursts::11             615                       # Per bank write bursts
system.mem_ctrls1.perBankWrBursts::12             869                       # Per bank write bursts
system.mem_ctrls1.perBankWrBursts::13             803                       # Per bank write bursts
system.mem_ctrls1.perBankWrBursts::14             817                       # Per bank write bursts
system.mem_ctrls1.perBankWrBursts::15             782                       # Per bank write bursts
system.mem_ctrls1.numRdRetry                        0                       # Number of times read queue was full causing retry
system.mem_ctrls1.numWrRetry                        0                       # Number of times write queue was full causing retry
system.mem_ctrls1.totGap                 1061876918475                       # Total gap between requests
system.mem_ctrls1.readPktSize::0                    0                       # Read request sizes (log2)
system.mem_ctrls1.readPktSize::1                    0                       # Read request sizes (log2)
system.mem_ctrls1.readPktSize::2                    0                       # Read request sizes (log2)
system.mem_ctrls1.readPktSize::3                    0                       # Read request sizes (log2)
system.mem_ctrls1.readPktSize::4                    0                       # Read request sizes (log2)
system.mem_ctrls1.readPktSize::5                    0                       # Read request sizes (log2)
system.mem_ctrls1.readPktSize::6                85106                       # Read request sizes (log2)
system.mem_ctrls1.writePktSize::0                   0                       # Write request sizes (log2)
system.mem_ctrls1.writePktSize::1                   0                       # Write request sizes (log2)
system.mem_ctrls1.writePktSize::2                   0                       # Write request sizes (log2)
system.mem_ctrls1.writePktSize::3                   0                       # Write request sizes (log2)
system.mem_ctrls1.writePktSize::4                   0                       # Write request sizes (log2)
system.mem_ctrls1.writePktSize::5                   0                       # Write request sizes (log2)
system.mem_ctrls1.writePktSize::6               11193                       # Write request sizes (log2)
system.mem_ctrls1.rdQLenPdf::0                  82567                       # What read queue length does an incoming req see
system.mem_ctrls1.rdQLenPdf::1                   2368                       # What read queue length does an incoming req see
system.mem_ctrls1.rdQLenPdf::2                    101                       # What read queue length does an incoming req see
system.mem_ctrls1.rdQLenPdf::3                      8                       # What read queue length does an incoming req see
system.mem_ctrls1.rdQLenPdf::4                      0                       # What read queue length does an incoming req see
system.mem_ctrls1.rdQLenPdf::5                      0                       # What read queue length does an incoming req see
system.mem_ctrls1.rdQLenPdf::6                      0                       # What read queue length does an incoming req see
system.mem_ctrls1.rdQLenPdf::7                      0                       # What read queue length does an incoming req see
system.mem_ctrls1.rdQLenPdf::8                      0                       # What read queue length does an incoming req see
system.mem_ctrls1.rdQLenPdf::9                      0                       # What read queue length does an incoming req see
system.mem_ctrls1.rdQLenPdf::10                     0                       # What read queue length does an incoming req see
system.mem_ctrls1.rdQLenPdf::11                     0                       # What read queue length does an incoming req see
system.mem_ctrls1.rdQLenPdf::12                     0                       # What read queue length does an incoming req see
system.mem_ctrls1.rdQLenPdf::13                     0                       # What read queue length does an incoming req see
system.mem_ctrls1.rdQLenPdf::14                     0                       # What read queue length does an incoming req see
system.mem_ctrls1.rdQLenPdf::15                     0                       # What read queue length does an incoming req see
system.mem_ctrls1.rdQLenPdf::16                     0                       # What read queue length does an incoming req see
system.mem_ctrls1.rdQLenPdf::17                     0                       # What read queue length does an incoming req see
system.mem_ctrls1.rdQLenPdf::18                     0                       # What read queue length does an incoming req see
system.mem_ctrls1.rdQLenPdf::19                     0                       # What read queue length does an incoming req see
system.mem_ctrls1.rdQLenPdf::20                     0                       # What read queue length does an incoming req see
system.mem_ctrls1.rdQLenPdf::21                     0                       # What read queue length does an incoming req see
system.mem_ctrls1.rdQLenPdf::22                     0                       # What read queue length does an incoming req see
system.mem_ctrls1.rdQLenPdf::23                     0                       # What read queue length does an incoming req see
system.mem_ctrls1.rdQLenPdf::24                     0                       # What read queue length does an incoming req see
system.mem_ctrls1.rdQLenPdf::25                     0                       # What read queue length does an incoming req see
system.mem_ctrls1.rdQLenPdf::26                     0                       # What read queue length does an incoming req see
system.mem_ctrls1.rdQLenPdf::27                     0                       # What read queue length does an incoming req see
system.mem_ctrls1.rdQLenPdf::28                     0                       # What read queue length does an incoming req see
system.mem_ctrls1.rdQLenPdf::29                     0                       # What read queue length does an incoming req see
system.mem_ctrls1.rdQLenPdf::30                     0                       # What read queue length does an incoming req see
system.mem_ctrls1.rdQLenPdf::31                     0                       # What read queue length does an incoming req see
system.mem_ctrls1.wrQLenPdf::0                      2                       # What write queue length does an incoming req see
system.mem_ctrls1.wrQLenPdf::1                      2                       # What write queue length does an incoming req see
system.mem_ctrls1.wrQLenPdf::2                      2                       # What write queue length does an incoming req see
system.mem_ctrls1.wrQLenPdf::3                      2                       # What write queue length does an incoming req see
system.mem_ctrls1.wrQLenPdf::4                      2                       # What write queue length does an incoming req see
system.mem_ctrls1.wrQLenPdf::5                      2                       # What write queue length does an incoming req see
system.mem_ctrls1.wrQLenPdf::6                      2                       # What write queue length does an incoming req see
system.mem_ctrls1.wrQLenPdf::7                      2                       # What write queue length does an incoming req see
system.mem_ctrls1.wrQLenPdf::8                      2                       # What write queue length does an incoming req see
system.mem_ctrls1.wrQLenPdf::9                      2                       # What write queue length does an incoming req see
system.mem_ctrls1.wrQLenPdf::10                     2                       # What write queue length does an incoming req see
system.mem_ctrls1.wrQLenPdf::11                     2                       # What write queue length does an incoming req see
system.mem_ctrls1.wrQLenPdf::12                     2                       # What write queue length does an incoming req see
system.mem_ctrls1.wrQLenPdf::13                     2                       # What write queue length does an incoming req see
system.mem_ctrls1.wrQLenPdf::14                     2                       # What write queue length does an incoming req see
system.mem_ctrls1.wrQLenPdf::15                   399                       # What write queue length does an incoming req see
system.mem_ctrls1.wrQLenPdf::16                   403                       # What write queue length does an incoming req see
system.mem_ctrls1.wrQLenPdf::17                   634                       # What write queue length does an incoming req see
system.mem_ctrls1.wrQLenPdf::18                   642                       # What write queue length does an incoming req see
system.mem_ctrls1.wrQLenPdf::19                   651                       # What write queue length does an incoming req see
system.mem_ctrls1.wrQLenPdf::20                   647                       # What write queue length does an incoming req see
system.mem_ctrls1.wrQLenPdf::21                   651                       # What write queue length does an incoming req see
system.mem_ctrls1.wrQLenPdf::22                   647                       # What write queue length does an incoming req see
system.mem_ctrls1.wrQLenPdf::23                   647                       # What write queue length does an incoming req see
system.mem_ctrls1.wrQLenPdf::24                   650                       # What write queue length does an incoming req see
system.mem_ctrls1.wrQLenPdf::25                   650                       # What write queue length does an incoming req see
system.mem_ctrls1.wrQLenPdf::26                   650                       # What write queue length does an incoming req see
system.mem_ctrls1.wrQLenPdf::27                   648                       # What write queue length does an incoming req see
system.mem_ctrls1.wrQLenPdf::28                   647                       # What write queue length does an incoming req see
system.mem_ctrls1.wrQLenPdf::29                   652                       # What write queue length does an incoming req see
system.mem_ctrls1.wrQLenPdf::30                   651                       # What write queue length does an incoming req see
system.mem_ctrls1.wrQLenPdf::31                   647                       # What write queue length does an incoming req see
system.mem_ctrls1.wrQLenPdf::32                   646                       # What write queue length does an incoming req see
system.mem_ctrls1.wrQLenPdf::33                     1                       # What write queue length does an incoming req see
system.mem_ctrls1.wrQLenPdf::34                     0                       # What write queue length does an incoming req see
system.mem_ctrls1.wrQLenPdf::35                     0                       # What write queue length does an incoming req see
system.mem_ctrls1.wrQLenPdf::36                     0                       # What write queue length does an incoming req see
system.mem_ctrls1.wrQLenPdf::37                     0                       # What write queue length does an incoming req see
system.mem_ctrls1.wrQLenPdf::38                     0                       # What write queue length does an incoming req see
system.mem_ctrls1.wrQLenPdf::39                     0                       # What write queue length does an incoming req see
system.mem_ctrls1.wrQLenPdf::40                     0                       # What write queue length does an incoming req see
system.mem_ctrls1.wrQLenPdf::41                     0                       # What write queue length does an incoming req see
system.mem_ctrls1.wrQLenPdf::42                     0                       # What write queue length does an incoming req see
system.mem_ctrls1.wrQLenPdf::43                     0                       # What write queue length does an incoming req see
system.mem_ctrls1.wrQLenPdf::44                     0                       # What write queue length does an incoming req see
system.mem_ctrls1.wrQLenPdf::45                     0                       # What write queue length does an incoming req see
system.mem_ctrls1.wrQLenPdf::46                     0                       # What write queue length does an incoming req see
system.mem_ctrls1.wrQLenPdf::47                     0                       # What write queue length does an incoming req see
system.mem_ctrls1.wrQLenPdf::48                     0                       # What write queue length does an incoming req see
system.mem_ctrls1.wrQLenPdf::49                     0                       # What write queue length does an incoming req see
system.mem_ctrls1.wrQLenPdf::50                     0                       # What write queue length does an incoming req see
system.mem_ctrls1.wrQLenPdf::51                     0                       # What write queue length does an incoming req see
system.mem_ctrls1.wrQLenPdf::52                     0                       # What write queue length does an incoming req see
system.mem_ctrls1.wrQLenPdf::53                     0                       # What write queue length does an incoming req see
system.mem_ctrls1.wrQLenPdf::54                     0                       # What write queue length does an incoming req see
system.mem_ctrls1.wrQLenPdf::55                     0                       # What write queue length does an incoming req see
system.mem_ctrls1.wrQLenPdf::56                     0                       # What write queue length does an incoming req see
system.mem_ctrls1.wrQLenPdf::57                     0                       # What write queue length does an incoming req see
system.mem_ctrls1.wrQLenPdf::58                     0                       # What write queue length does an incoming req see
system.mem_ctrls1.wrQLenPdf::59                     0                       # What write queue length does an incoming req see
system.mem_ctrls1.wrQLenPdf::60                     0                       # What write queue length does an incoming req see
system.mem_ctrls1.wrQLenPdf::61                     0                       # What write queue length does an incoming req see
system.mem_ctrls1.wrQLenPdf::62                     0                       # What write queue length does an incoming req see
system.mem_ctrls1.wrQLenPdf::63                     0                       # What write queue length does an incoming req see
system.mem_ctrls1.bytesPerActivate::samples        45828                       # Bytes accessed per row activation
system.mem_ctrls1.bytesPerActivate::mean   134.370952                       # Bytes accessed per row activation
system.mem_ctrls1.bytesPerActivate::gmean    95.804054                       # Bytes accessed per row activation
system.mem_ctrls1.bytesPerActivate::stdev   164.443348                       # Bytes accessed per row activation
system.mem_ctrls1.bytesPerActivate::0-127        30931     67.49%     67.49% # Bytes accessed per row activation
system.mem_ctrls1.bytesPerActivate::128-255         8991     19.62%     87.11% # Bytes accessed per row activation
system.mem_ctrls1.bytesPerActivate::256-383         2267      4.95%     92.06% # Bytes accessed per row activation
system.mem_ctrls1.bytesPerActivate::384-511         1324      2.89%     94.95% # Bytes accessed per row activation
system.mem_ctrls1.bytesPerActivate::512-639          792      1.73%     96.68% # Bytes accessed per row activation
system.mem_ctrls1.bytesPerActivate::640-767          500      1.09%     97.77% # Bytes accessed per row activation
system.mem_ctrls1.bytesPerActivate::768-895          343      0.75%     98.52% # Bytes accessed per row activation
system.mem_ctrls1.bytesPerActivate::896-1023          217      0.47%     98.99% # Bytes accessed per row activation
system.mem_ctrls1.bytesPerActivate::1024-1151          463      1.01%    100.00% # Bytes accessed per row activation
system.mem_ctrls1.bytesPerActivate::total        45828                       # Bytes accessed per row activation
system.mem_ctrls1.rdPerTurnAround::samples          647                       # Reads before turning the bus around for writes
system.mem_ctrls1.rdPerTurnAround::mean    131.440495                       # Reads before turning the bus around for writes
system.mem_ctrls1.rdPerTurnAround::gmean    76.345731                       # Reads before turning the bus around for writes
system.mem_ctrls1.rdPerTurnAround::stdev  1060.494077                       # Reads before turning the bus around for writes
system.mem_ctrls1.rdPerTurnAround::0-1023          646     99.85%     99.85% # Reads before turning the bus around for writes
system.mem_ctrls1.rdPerTurnAround::26624-27647            1      0.15%    100.00% # Reads before turning the bus around for writes
system.mem_ctrls1.rdPerTurnAround::total          647                       # Reads before turning the bus around for writes
system.mem_ctrls1.wrPerTurnAround::samples          647                       # Writes before turning the bus around for reads
system.mem_ctrls1.wrPerTurnAround::mean     17.272025                       # Writes before turning the bus around for reads
system.mem_ctrls1.wrPerTurnAround::gmean    17.241606                       # Writes before turning the bus around for reads
system.mem_ctrls1.wrPerTurnAround::stdev     1.020019                       # Writes before turning the bus around for reads
system.mem_ctrls1.wrPerTurnAround::16             244     37.71%     37.71% # Writes before turning the bus around for reads
system.mem_ctrls1.wrPerTurnAround::17               5      0.77%     38.49% # Writes before turning the bus around for reads
system.mem_ctrls1.wrPerTurnAround::18             379     58.58%     97.06% # Writes before turning the bus around for reads
system.mem_ctrls1.wrPerTurnAround::19              18      2.78%     99.85% # Writes before turning the bus around for reads
system.mem_ctrls1.wrPerTurnAround::22               1      0.15%    100.00% # Writes before turning the bus around for reads
system.mem_ctrls1.wrPerTurnAround::total          647                       # Writes before turning the bus around for reads
system.mem_ctrls1.totQLat                  3476860759                       # Total ticks spent queuing
system.mem_ctrls1.totMemAccLat             5071435759                       # Total ticks spent from burst creation until serviced by the DRAM
system.mem_ctrls1.totBusLat                 425220000                       # Total ticks spent in databus transfers
system.mem_ctrls1.avgQLat                    40883.08                       # Average queueing delay per DRAM burst
system.mem_ctrls1.avgBusLat                   5000.00                       # Average bus latency per DRAM burst
system.mem_ctrls1.avgMemAccLat               59633.08                       # Average memory access latency per DRAM burst
system.mem_ctrls1.avgRdBW                        5.13                       # Average DRAM read bandwidth in MiByte/s
system.mem_ctrls1.avgWrBW                        0.67                       # Average achieved write bandwidth in MiByte/s
system.mem_ctrls1.avgRdBWSys                     5.13                       # Average system read bandwidth in MiByte/s
system.mem_ctrls1.avgWrBWSys                     0.67                       # Average system write bandwidth in MiByte/s
system.mem_ctrls1.peakBW                     12800.00                       # Theoretical peak bandwidth in MiByte/s
system.mem_ctrls1.busUtil                        0.05                       # Data bus utilization in percentage
system.mem_ctrls1.busUtilRead                    0.04                       # Data bus utilization in percentage for reads
system.mem_ctrls1.busUtilWrite                   0.01                       # Data bus utilization in percentage for writes
system.mem_ctrls1.avgRdQLen                      1.00                       # Average read queue length when enqueuing
system.mem_ctrls1.avgWrQLen                     17.83                       # Average write queue length when enqueuing
system.mem_ctrls1.readRowHits                   48642                       # Number of row buffer hits during reads
system.mem_ctrls1.writeRowHits                   1748                       # Number of row buffer hits during writes
system.mem_ctrls1.readRowHitRate                57.20                       # Row buffer hit rate for reads
system.mem_ctrls1.writeRowHitRate               15.62                       # Row buffer hit rate for writes
system.mem_ctrls1.avgGap                  11026873.78                       # Average gap between requests
system.mem_ctrls1.pageHitRate                   52.36                       # Row buffer hit rate, read and write combined
system.mem_ctrls1_0.actEnergy               164862600                       # Energy for activate commands per rank (pJ)
system.mem_ctrls1_0.preEnergy                87622755                       # Energy for precharge commands per rank (pJ)
system.mem_ctrls1_0.readEnergy              301615020                       # Energy for read commands per rank (pJ)
system.mem_ctrls1_0.writeEnergy              28636920                       # Energy for write commands per rank (pJ)
system.mem_ctrls1_0.refreshEnergy        6027774480.000001                       # Energy for refresh commands per rank (pJ)
system.mem_ctrls1_0.actBackEnergy          2136257400                       # Energy for active background per rank (pJ)
system.mem_ctrls1_0.preBackEnergy           298382880                       # Energy for precharge background per rank (pJ)
system.mem_ctrls1_0.actPowerDownEnergy    16485294900                       # Energy for active power-down per rank (pJ)
system.mem_ctrls1_0.prePowerDownEnergy     8015316000                       # Energy for precharge power-down per rank (pJ)
system.mem_ctrls1_0.selfRefreshEnergy    240911337570                       # Energy for self refresh per rank (pJ)
system.mem_ctrls1_0.totalEnergy          274459128795                       # Total energy per rank (pJ)
system.mem_ctrls1_0.averagePower           258.465595                       # Core power per rank (mW)
system.mem_ctrls1_0.totalIdleTime        1056411443170                       # Total Idle time Per DRAM Rank
system.mem_ctrls1_0.memoryStateTime::IDLE    543844319                       # Time in different power states
system.mem_ctrls1_0.memoryStateTime::REF   2561490000                       # Time in different power states
system.mem_ctrls1_0.memoryStateTime::SREF 999387271200                       # Time in different power states
system.mem_ctrls1_0.memoryStateTime::PRE_PDN  20873271149                       # Time in different power states
system.mem_ctrls1_0.memoryStateTime::ACT   2360811711                       # Time in different power states
system.mem_ctrls1_0.memoryStateTime::ACT_PDN  36152081576                       # Time in different power states
system.mem_ctrls1_1.actEnergy               162356460                       # Energy for activate commands per rank (pJ)
system.mem_ctrls1_1.preEnergy                86294505                       # Energy for precharge commands per rank (pJ)
system.mem_ctrls1_1.readEnergy              305599140                       # Energy for read commands per rank (pJ)
system.mem_ctrls1_1.writeEnergy              29696580                       # Energy for write commands per rank (pJ)
system.mem_ctrls1_1.refreshEnergy        6056662560.000001                       # Energy for refresh commands per rank (pJ)
system.mem_ctrls1_1.actBackEnergy          2137526790                       # Energy for active background per rank (pJ)
system.mem_ctrls1_1.preBackEnergy           302183520                       # Energy for precharge background per rank (pJ)
system.mem_ctrls1_1.actPowerDownEnergy    16534053270                       # Energy for active power-down per rank (pJ)
system.mem_ctrls1_1.prePowerDownEnergy     7973035680                       # Energy for precharge power-down per rank (pJ)
system.mem_ctrls1_1.selfRefreshEnergy    240936087825                       # Energy for self refresh per rank (pJ)
system.mem_ctrls1_1.totalEnergy          274525509120                       # Total energy per rank (pJ)
system.mem_ctrls1_1.averagePower           258.528107                       # Core power per rank (mW)
system.mem_ctrls1_1.totalIdleTime        1056394565084                       # Total Idle time Per DRAM Rank
system.mem_ctrls1_1.memoryStateTime::IDLE    553852106                       # Time in different power states
system.mem_ctrls1_1.memoryStateTime::REF   2573980000                       # Time in different power states
system.mem_ctrls1_1.memoryStateTime::SREF 999377786955                       # Time in different power states
system.mem_ctrls1_1.memoryStateTime::PRE_PDN  20763129636                       # Time in different power states
system.mem_ctrls1_1.memoryStateTime::ACT   2351252270                       # Time in different power states
system.mem_ctrls1_1.memoryStateTime::ACT_PDN  36258768988                       # Time in different power states
system.pwrStateResidencyTicks::UNDEFINED 31073292931005                       # Cumulative time (in ticks) in various power states
system.cpu.branchPred.lookups                       6                       # Number of BP lookups
system.cpu.branchPred.condPredicted                 3                       # Number of conditional branches predicted
system.cpu.branchPred.condIncorrect                 3                       # Number of conditional branches incorrect
system.cpu.branchPred.BTBLookups                    3                       # Number of BTB lookups
system.cpu.branchPred.BTBHits                       0                       # Number of BTB hits
system.cpu.branchPred.BTBCorrect                    0                       # Number of correct BTB predictions (this stat may not work properly.
system.cpu.branchPred.BTBHitPct              0.000000                       # BTB Hit Percentage
system.cpu.branchPred.usedRAS                       0                       # Number of times the RAS was used to get a target.
system.cpu.branchPred.RASInCorrect                  0                       # Number of incorrect RAS predictions.
system.cpu.branchPred.indirectLookups               1                       # Number of indirect predictor lookups.
system.cpu.branchPred.indirectHits                  0                       # Number of indirect target hits.
system.cpu.branchPred.indirectMisses                1                       # Number of indirect misses.
system.cpu.branchPredindirectMispredicted            1                       # Number of mispredicted indirect branches.
system.cpu_voltage_domain.voltage                   1                       # Voltage in Volts
system.cpu_clk_domain.clock                       333                       # Clock period in ticks
system.cpu.dtb.fetch_hits                           0                       # ITB hits
system.cpu.dtb.fetch_misses                         0                       # ITB misses
system.cpu.dtb.fetch_acv                            0                       # ITB acv
system.cpu.dtb.fetch_accesses                       0                       # ITB accesses
system.cpu.dtb.read_hits                            5                       # DTB read hits
system.cpu.dtb.read_misses                          0                       # DTB read misses
system.cpu.dtb.read_acv                             0                       # DTB read access violations
system.cpu.dtb.read_accesses                        5                       # DTB read accesses
system.cpu.dtb.write_hits                           0                       # DTB write hits
system.cpu.dtb.write_misses                         0                       # DTB write misses
system.cpu.dtb.write_acv                            0                       # DTB write access violations
system.cpu.dtb.write_accesses                       0                       # DTB write accesses
system.cpu.dtb.data_hits                            5                       # DTB hits
system.cpu.dtb.data_misses                          0                       # DTB misses
system.cpu.dtb.data_acv                             0                       # DTB access violations
system.cpu.dtb.data_accesses                        5                       # DTB accesses
system.cpu.itb.fetch_hits                           7                       # ITB hits
system.cpu.itb.fetch_misses                         0                       # ITB misses
system.cpu.itb.fetch_acv                            0                       # ITB acv
system.cpu.itb.fetch_accesses                       7                       # ITB accesses
system.cpu.itb.read_hits                            0                       # DTB read hits
system.cpu.itb.read_misses                          0                       # DTB read misses
system.cpu.itb.read_acv                             0                       # DTB read access violations
system.cpu.itb.read_accesses                        0                       # DTB read accesses
system.cpu.itb.write_hits                           0                       # DTB write hits
system.cpu.itb.write_misses                         0                       # DTB write misses
system.cpu.itb.write_acv                            0                       # DTB write access violations
system.cpu.itb.write_accesses                       0                       # DTB write accesses
system.cpu.itb.data_hits                            0                       # DTB hits
system.cpu.itb.data_misses                          0                       # DTB misses
system.cpu.itb.data_acv                             0                       # DTB access violations
system.cpu.itb.data_accesses                        0                       # DTB accesses
system.cpu.workload.num_syscalls                    9                       # Number of system calls
system.cpu.pwrStateResidencyTicks::ON    1061878769955                       # Cumulative time (in ticks) in various power states
system.cpu.numCycles                              607                       # number of cpu cycles simulated
system.cpu.numWorkItemsStarted                      0                       # number of work items this cpu started
system.cpu.numWorkItemsCompleted                    0                       # number of work items this cpu completed
system.cpu.fetch.icacheStallCycles                 50                       # Number of cycles fetch is stalled on an Icache miss
system.cpu.fetch.Insts                             34                       # Number of instructions fetch has processed
system.cpu.fetch.Branches                           6                       # Number of branches that fetch encountered
system.cpu.fetch.Cycles                             5                       # Number of cycles fetch has run and was not squashing or blocked
system.cpu.fetch.SquashCycles                       9                       # Number of cycles fetch has spent squashing
system.cpu.fetch.PendingDrainCycles                 6                       # Number of cycles fetch has spent waiting on pipes to drain
system.cpu.fetch.CacheLines                         7                       # Number of cache lines fetched
system.cpu.fetch.IcacheSquashes                     4                       # Number of outstanding Icache misses that were squashed
system.cpu.fetch.rateDist::samples                 65                       # Number of instructions fetched each cycle (Total)
system.cpu.fetch.rateDist::mean              0.523077                       # Number of instructions fetched each cycle (Total)
system.cpu.fetch.rateDist::stdev             1.880057                       # Number of instructions fetched each cycle (Total)
system.cpu.fetch.rateDist::underflows               0      0.00%      0.00% # Number of instructions fetched each cycle (Total)
system.cpu.fetch.rateDist::0                       60     92.31%     92.31% # Number of instructions fetched each cycle (Total)
system.cpu.fetch.rateDist::1                        0      0.00%     92.31% # Number of instructions fetched each cycle (Total)
system.cpu.fetch.rateDist::2                        0      0.00%     92.31% # Number of instructions fetched each cycle (Total)
system.cpu.fetch.rateDist::3                        0      0.00%     92.31% # Number of instructions fetched each cycle (Total)
system.cpu.fetch.rateDist::4                        1      1.54%     93.85% # Number of instructions fetched each cycle (Total)
system.cpu.fetch.rateDist::5                        0      0.00%     93.85% # Number of instructions fetched each cycle (Total)
system.cpu.fetch.rateDist::6                        1      1.54%     95.38% # Number of instructions fetched each cycle (Total)
system.cpu.fetch.rateDist::7                        0      0.00%     95.38% # Number of instructions fetched each cycle (Total)
system.cpu.fetch.rateDist::8                        3      4.62%    100.00% # Number of instructions fetched each cycle (Total)
system.cpu.fetch.rateDist::overflows                0      0.00%    100.00% # Number of instructions fetched each cycle (Total)
system.cpu.fetch.rateDist::min_value                0                       # Number of instructions fetched each cycle (Total)
system.cpu.fetch.rateDist::max_value                8                       # Number of instructions fetched each cycle (Total)
system.cpu.fetch.rateDist::total                   65                       # Number of instructions fetched each cycle (Total)
[...]
system.switch_cpus_1.iq.int_inst_queue_wakeup_accesses    235635160                       # Number of integer instruction queue wakeup accesses
system.switch_cpus_1.iq.fp_inst_queue_reads       480097                       # Number of floating instruction queue reads
system.switch_cpus_1.iq.fp_inst_queue_writes       344597                       # Number of floating instruction queue writes
system.switch_cpus_1.iq.fp_inst_queue_wakeup_accesses       211976                       # Number of floating instruction queue wakeup accesses
system.switch_cpus_1.iq.int_alu_accesses    249156891                       # Number of integer alu accesses
system.switch_cpus_1.iq.fp_alu_accesses        246491                       # Number of floating point alu accesses
system.switch_cpus_1.iew.lsq.thread0.forwLoads      8581897                       # Number of loads that had data forwarded from stores
system.switch_cpus_1.iew.lsq.thread0.invAddrLoads            0                       # Number of loads ignored due to an invalid address
system.switch_cpus_1.iew.lsq.thread0.squashedLoads     24785230                       # Number of loads squashed
system.switch_cpus_1.iew.lsq.thread0.ignoredResponses        43301                       # Number of memory responses ignored because the instruction is squashed
system.switch_cpus_1.iew.lsq.thread0.memOrderViolation        81301                       # Number of memory ordering violations
system.switch_cpus_1.iew.lsq.thread0.squashedStores     10635037                       # Number of stores squashed
system.switch_cpus_1.iew.lsq.thread0.invAddrSwpfs            0                       # Number of software prefetches ignored due to an invalid address
system.switch_cpus_1.iew.lsq.thread0.blockedLoads            0                       # Number of blocked loads due to partial load-store forwarding
system.switch_cpus_1.iew.lsq.thread0.rescheduledLoads           45                       # Number of loads that were rescheduled
system.switch_cpus_1.iew.lsq.thread0.cacheBlocked       166474                       # Number of times an access to memory failed due to the cache being blocked
system.switch_cpus_1.iew.iewIdleCycles              0                       # Number of cycles IEW is idle
system.switch_cpus_1.iew.iewSquashCycles      2078535                       # Number of cycles IEW is squashing
system.switch_cpus_1.iew.iewBlockCycles      14987600                       # Number of cycles IEW is blocking
system.switch_cpus_1.iew.iewUnblockCycles      9414843                       # Number of cycles IEW is unblocking
system.switch_cpus_1.iew.iewDispatchedInsts    280945932                       # Number of instructions dispatched to IQ
system.switch_cpus_1.iew.iewDispSquashedInsts       652496                       # Number of squashed instructions skipped by dispatch
system.switch_cpus_1.iew.iewDispLoadInsts     89892758                       # Number of dispatched load instructions
system.switch_cpus_1.iew.iewDispStoreInsts     38806998                       # Number of dispatched store instructions
system.switch_cpus_1.iew.iewDispNonSpecInsts        84580                       # Number of dispatched non-speculative instructions
system.switch_cpus_1.iew.iewIQFullEvents       336563                       # Number of times the IQ has become full, causing a stall
system.switch_cpus_1.iew.iewLSQFullEvents      9106472                       # Number of times the LSQ has become full, causing a stall
system.switch_cpus_1.iew.memOrderViolationEvents        81301                       # Number of memory order violations
system.switch_cpus_1.iew.predictedTakenIncorrect       938295                       # Number of branches that were predicted taken incorrectly
system.switch_cpus_1.iew.predictedNotTakenIncorrect       732710                       # Number of branches that were predicted not taken incorrectly
system.switch_cpus_1.iew.branchMispredicts      1671005                       # Number of branch mispredicts detected at execute
system.switch_cpus_1.iew.iewExecutedInsts    239226543                       # Number of executed instructions
system.switch_cpus_1.iew.iewExecLoadInsts     78324444                       # Number of load instructions executed
system.switch_cpus_1.iew.iewExecSquashedInsts      2941111                       # Number of squashed instructions skipped in execute
system.switch_cpus_1.iew.exec_swp                   0                       # number of swp insts executed
system.switch_cpus_1.iew.exec_nop             6947918                       # number of nop insts executed
system.switch_cpus_1.iew.exec_refs          112500386                       # number of memory reference insts executed
system.switch_cpus_1.iew.exec_branches       39845848                       # Number of branches executed
system.switch_cpus_1.iew.exec_stores         34175942                       # Number of stores executed
system.switch_cpus_1.iew.exec_rate           1.279773                       # Inst execution rate
system.switch_cpus_1.iew.wb_sent            237771487                       # cumulative count of insts sent to commit
system.switch_cpus_1.iew.wb_count           235847136                       # cumulative count of insts written-back
system.switch_cpus_1.iew.wb_producers       131538229                       # num instructions producing a value
system.switch_cpus_1.iew.wb_consumers       175124658                       # num instructions consuming a value
system.switch_cpus_1.iew.wb_rate             1.261694                       # insts written-back per cycle
system.switch_cpus_1.iew.wb_fanout           0.751112                       # average fanout of values written-back
system.switch_cpus_1.commit.commitSquashedInsts     67943328                       # The number of squashed insts skipped by commit
system.switch_cpus_1.commit.commitNonSpecStalls       131982                       # The number of times commit has been forced to stall to communicate backwards
system.switch_cpus_1.commit.branchMispredicts      1459075                       # The number of times a branch was mispredicted
system.switch_cpus_1.commit.committed_per_cycle::samples    168130022                       # Number of insts commited each cycle
system.switch_cpus_1.commit.committed_per_cycle::mean     1.217927                       # Number of insts commited each cycle
system.switch_cpus_1.commit.committed_per_cycle::stdev     2.287614                       # Number of insts commited each cycle
system.switch_cpus_1.commit.committed_per_cycle::underflows            0      0.00%      0.00% # Number of insts commited each cycle
system.switch_cpus_1.commit.committed_per_cycle::0    106720359     63.47%     63.47% # Number of insts commited each cycle
system.switch_cpus_1.commit.committed_per_cycle::1     25498386     15.17%     78.64% # Number of insts commited each cycle
system.switch_cpus_1.commit.committed_per_cycle::2      9030569      5.37%     84.01% # Number of insts commited each cycle
system.switch_cpus_1.commit.committed_per_cycle::3      4129780      2.46%     86.47% # Number of insts commited each cycle
system.switch_cpus_1.commit.committed_per_cycle::4      3890772      2.31%     88.78% # Number of insts commited each cycle
system.switch_cpus_1.commit.committed_per_cycle::5      3309256      1.97%     90.75% # Number of insts commited each cycle
system.switch_cpus_1.commit.committed_per_cycle::6      2824824      1.68%     92.43% # Number of insts commited each cycle
system.switch_cpus_1.commit.committed_per_cycle::7      2045739      1.22%     93.65% # Number of insts commited each cycle
system.switch_cpus_1.commit.committed_per_cycle::8     10680337      6.35%    100.00% # Number of insts commited each cycle
system.switch_cpus_1.commit.committed_per_cycle::overflows            0      0.00%    100.00% # Number of insts commited each cycle
system.switch_cpus_1.commit.committed_per_cycle::min_value            0                       # Number of insts commited each cycle
system.switch_cpus_1.commit.committed_per_cycle::max_value            8                       # Number of insts commited each cycle
system.switch_cpus_1.commit.committed_per_cycle::total    168130022                       # Number of insts commited each cycle
system.switch_cpus_1.commit.committedInsts    204770045                       # Number of instructions committed
system.switch_cpus_1.commit.committedOps    204770045                       # Number of ops (including micro ops) committed
system.switch_cpus_1.commit.swp_count               0                       # Number of s/w prefetches committed
system.switch_cpus_1.commit.refs             93279484                       # Number of memory references committed
system.switch_cpus_1.commit.loads            65107527                       # Number of loads committed
system.switch_cpus_1.commit.membars             65988                       # Number of memory barriers committed
system.switch_cpus_1.commit.branches         33714070                       # Number of branches committed
system.switch_cpus_1.commit.fp_insts           159557                       # Number of committed floating point instructions.
system.switch_cpus_1.commit.int_insts       196778837                       # Number of committed integer instructions.
system.switch_cpus_1.commit.function_calls      2336737                       # Number of function calls committed.
system.switch_cpus_1.commit.op_class_0::No_OpClass      4770592      2.33%      2.33% # Class of committed instruction
system.switch_cpus_1.commit.op_class_0::IntAlu    106615487     52.07%     54.40% # Class of committed instruction
system.switch_cpus_1.commit.op_class_0::IntMult         2354      0.00%     54.40% # Class of committed instruction
system.switch_cpus_1.commit.op_class_0::IntDiv            0      0.00%     54.40% # Class of committed instruction
system.switch_cpus_1.commit.op_class_0::FloatAdd        29677      0.01%     54.41% # Class of committed instruction
system.switch_cpus_1.commit.op_class_0::FloatCmp         2802      0.00%     54.41% # Class of committed instruction
system.switch_cpus_1.commit.op_class_0::FloatCvt         2757      0.00%     54.41% # Class of committed instruction
system.switch_cpus_1.commit.op_class_0::FloatMult          480      0.00%     54.41% # Class of committed instruction
system.switch_cpus_1.commit.op_class_0::FloatMultAcc            0      0.00%     54.41% # Class of committed instruction
system.switch_cpus_1.commit.op_class_0::FloatDiv          424      0.00%     54.41% # Class of committed instruction
system.switch_cpus_1.commit.op_class_0::FloatMisc            0      0.00%     54.41% # Class of committed instruction
system.switch_cpus_1.commit.op_class_0::FloatSqrt            0      0.00%     54.41% # Class of committed instruction
system.switch_cpus_1.commit.op_class_0::SimdAdd            0      0.00%     54.41% # Class of committed instruction
system.switch_cpus_1.commit.op_class_0::SimdAddAcc            0      0.00%     54.41% # Class of committed instruction
system.switch_cpus_1.commit.op_class_0::SimdAlu            0      0.00%     54.41% # Class of committed instruction
system.switch_cpus_1.commit.op_class_0::SimdCmp            0      0.00%     54.41% # Class of committed instruction
system.switch_cpus_1.commit.op_class_0::SimdCvt            0      0.00%     54.41% # Class of committed instruction
system.switch_cpus_1.commit.op_class_0::SimdMisc            0      0.00%     54.41% # Class of committed instruction
system.switch_cpus_1.commit.op_class_0::SimdMult            0      0.00%     54.41% # Class of committed instruction
system.switch_cpus_1.commit.op_class_0::SimdMultAcc            0      0.00%     54.41% # Class of committed instruction
system.switch_cpus_1.commit.op_class_0::SimdShift            0      0.00%     54.41% # Class of committed instruction
system.switch_cpus_1.commit.op_class_0::SimdShiftAcc            0      0.00%     54.41% # Class of committed instruction
system.switch_cpus_1.commit.op_class_0::SimdSqrt            0      0.00%     54.41% # Class of committed instruction
system.switch_cpus_1.commit.op_class_0::SimdFloatAdd            0      0.00%     54.41% # Class of committed instruction
system.switch_cpus_1.commit.op_class_0::SimdFloatAlu            0      0.00%     54.41% # Class of committed instruction
system.switch_cpus_1.commit.op_class_0::SimdFloatCmp            0      0.00%     54.41% # Class of committed instruction
system.switch_cpus_1.commit.op_class_0::SimdFloatCvt            0      0.00%     54.41% # Class of committed instruction
system.switch_cpus_1.commit.op_class_0::SimdFloatDiv            0      0.00%     54.41% # Class of committed instruction
system.switch_cpus_1.commit.op_class_0::SimdFloatMisc            0      0.00%     54.41% # Class of committed instruction
system.switch_cpus_1.commit.op_class_0::SimdFloatMult            0      0.00%     54.41% # Class of committed instruction
system.switch_cpus_1.commit.op_class_0::SimdFloatMultAcc            0      0.00%     54.41% # Class of committed instruction
system.switch_cpus_1.commit.op_class_0::SimdFloatSqrt            0      0.00%     54.41% # Class of committed instruction
system.switch_cpus_1.commit.op_class_0::MemRead     65122112     31.80%     86.22% # Class of committed instruction
system.switch_cpus_1.commit.op_class_0::MemWrite     28099943     13.72%     99.94% # Class of committed instruction
system.switch_cpus_1.commit.op_class_0::FloatMemRead        51403      0.03%     99.96% # Class of committed instruction
system.switch_cpus_1.commit.op_class_0::FloatMemWrite        72014      0.04%    100.00% # Class of committed instruction
system.switch_cpus_1.commit.op_class_0::IprAccess            0      0.00%    100.00% # Class of committed instruction
system.switch_cpus_1.commit.op_class_0::InstPrefetch            0      0.00%    100.00% # Class of committed instruction
system.switch_cpus_1.commit.op_class_0::total    204770045                       # Class of committed instruction
system.switch_cpus_1.commit.bw_lim_events     10680337                       # number cycles where commit BW limit reached
system.switch_cpus_1.rob.rob_reads          422937229                       # The number of ROB reads
system.switch_cpus_1.rob.rob_writes         555388050                       # The number of ROB writes
system.switch_cpus_1.timesIdled               1134817                       # Number of times that the entire CPU went into an idle state and unscheduled itself
system.switch_cpus_1.idleCycles               8860555                       # Total number of cycles that the CPU has spent unscheduled due to idling
system.switch_cpus_1.committedInsts         200000002                       # Number of Instructions Simulated
system.switch_cpus_1.committedOps           200000002                       # Number of Ops (including micro ops) Simulated
system.switch_cpus_1.cpi                     0.934644                       # CPI: Cycles Per Instruction
system.switch_cpus_1.cpi_total               0.934644                       # CPI: Total CPI of All Threads
system.switch_cpus_1.ipc                     1.069926                       # IPC: Instructions Per Cycle
system.switch_cpus_1.ipc_total               1.069926                       # IPC: Total IPC of All Threads
system.switch_cpus_1.int_regfile_reads      304262756                       # number of integer regfile reads
system.switch_cpus_1.int_regfile_writes     165693231                       # number of integer regfile writes
system.switch_cpus_1.fp_regfile_reads          179336                       # number of floating regfile reads
system.switch_cpus_1.fp_regfile_writes         106088                       # number of floating regfile writes
system.switch_cpus_1.misc_regfile_reads        151467                       # number of misc regfile reads
system.switch_cpus_1.misc_regfile_writes       132243                       # number of misc regfile writes
system.tol3bus.snoop_filter.tot_requests      1294853                       # Total number of requests made to the snoop filter.
system.tol3bus.snoop_filter.hit_single_requests       645392                       # Number of requests hitting in the snoop filter with a single holder of the requested data.
system.tol3bus.snoop_filter.hit_multi_requests            0                       # Number of requests hitting in the snoop filter with multiple (>1) holders of the requested data.
system.tol3bus.snoop_filter.tot_snoops            631                       # Total number of snoops made to the snoop filter.
system.tol3bus.snoop_filter.hit_single_snoops          631                       # Number of snoops hitting in the snoop filter with a single holder of the requested data.
system.tol3bus.snoop_filter.hit_multi_snoops            0                       # Number of snoops hitting in the snoop filter with multiple (>1) holders of the requested data.
system.tol3bus.pwrStateResidencyTicks::UNDEFINED 31073292931005                       # Cumulative time (in ticks) in various power states
system.tol3bus.trans_dist::ReadResp            578407                       # Transaction distribution
system.tol3bus.trans_dist::WritebackDirty       197161                       # Transaction distribution
system.tol3bus.trans_dist::CleanEvict          552670                       # Transaction distribution
system.tol3bus.trans_dist::UpgradeReq               1                       # Transaction distribution
system.tol3bus.trans_dist::UpgradeResp              1                       # Transaction distribution
system.tol3bus.trans_dist::ReadExReq            71054                       # Transaction distribution
system.tol3bus.trans_dist::ReadExResp           71054                       # Transaction distribution
system.tol3bus.trans_dist::ReadSharedReq       578407                       # Transaction distribution
system.tol3bus.pkt_count_system.cpu.l2.mem_side::system.l3.cpu_side      1944315                       # Packet count per connected master and slave (bytes)
system.tol3bus.pkt_size_system.cpu.l2.mem_side::system.l3.cpu_side     52746624                       # Cumulative packet size per connected master and slave (bytes)
system.tol3bus.snoops                          104440                       # Total snoops (count)
system.tol3bus.snoopTraffic                   1437184                       # Total snoop traffic (bytes)
system.tol3bus.snoop_fanout::samples           753902                       # Request fanout histogram
system.tol3bus.snoop_fanout::mean            0.000837                       # Request fanout histogram
system.tol3bus.snoop_fanout::stdev           0.028918                       # Request fanout histogram
system.tol3bus.snoop_fanout::underflows             0      0.00%      0.00% # Request fanout histogram
system.tol3bus.snoop_fanout::0                 753271     99.92%     99.92% # Request fanout histogram
system.tol3bus.snoop_fanout::1                    631      0.08%    100.00% # Request fanout histogram
system.tol3bus.snoop_fanout::overflows              0      0.00%    100.00% # Request fanout histogram
system.tol3bus.snoop_fanout::min_value              0                       # Request fanout histogram
system.tol3bus.snoop_fanout::max_value              1                       # Request fanout histogram
system.tol3bus.snoop_fanout::total             753902                       # Request fanout histogram
system.tol3bus.reqLayer0.occupancy          489362814                       # Layer occupancy (ticks)
system.tol3bus.reqLayer0.utilization              0.0                       # Layer utilization (%)
system.tol3bus.respLayer0.occupancy         432541359                       # Layer occupancy (ticks)
system.tol3bus.respLayer0.utilization             0.0                       # Layer utilization (%)

---------- End Simulation Statistics   ----------
