
---------- Begin Simulation Statistics ----------
sim_seconds                                  2.507084                       # Number of seconds simulated
sim_ticks                                2507084457948                       # Number of ticks simulated
final_tick                               129460080982680                       # Number of ticks from beginning of simulation (restored from checkpoints and never reset)
sim_freq                                 1000000000000                       # Frequency of simulated ticks
host_inst_rate                                 199034                       # Simulator instruction rate (inst/s)
host_op_rate                                   199034                       # Simulator op (including micro ops) rate (op/s)
host_tick_rate                              415829942                       # Simulator tick rate (ticks/s)
host_mem_usage                                2435288                       # Number of bytes of host memory used
host_seconds                                  6029.11                       # Real time elapsed on the host
sim_insts                                  1200000003                       # Number of instructions simulated
sim_ops                                    1200000003                       # Number of ops (including micro ops) simulated
system.voltage_domain.voltage                       1                       # Voltage in Volts
system.clk_domain.clock                          1000                       # Clock period in ticks
system.mem_ctrls0.pwrStateResidencyTicks::UNDEFINED 129460080982680                       # Cumulative time (in ticks) in various power states
system.mem_ctrls0.bytes_read::cpu.inst            128                       # Number of bytes read from this memory
system.mem_ctrls0.bytes_read::switch_cpus.inst       147328                       # Number of bytes read from this memory
system.mem_ctrls0.bytes_read::switch_cpus.data    390346816                       # Number of bytes read from this memory
system.mem_ctrls0.bytes_read::switch_cpus_1.inst        59008                       # Number of bytes read from this memory
system.mem_ctrls0.bytes_read::switch_cpus_1.data     88004096                       # Number of bytes read from this memory
system.mem_ctrls0.bytes_read::total         478557376                       # Number of bytes read from this memory
system.mem_ctrls0.bytes_inst_read::cpu.inst          128                       # Number of instructions bytes read from this memory
system.mem_ctrls0.bytes_inst_read::switch_cpus.inst       147328                       # Number of instructions bytes read from this memory
system.mem_ctrls0.bytes_inst_read::switch_cpus_1.inst        59008                       # Number of instructions bytes read from this memory
system.mem_ctrls0.bytes_inst_read::total       206464                       # Number of instructions bytes read from this memory
system.mem_ctrls0.bytes_written::writebacks    201975552                       # Number of bytes written to this memory
system.mem_ctrls0.bytes_written::total      201975552                       # Number of bytes written to this memory
system.mem_ctrls0.num_reads::cpu.inst               2                       # Number of read requests responded to by this memory
system.mem_ctrls0.num_reads::switch_cpus.inst         2302                       # Number of read requests responded to by this memory
system.mem_ctrls0.num_reads::switch_cpus.data      6099169                       # Number of read requests responded to by this memory
system.mem_ctrls0.num_reads::switch_cpus_1.inst          922                       # Number of read requests responded to by this memory
system.mem_ctrls0.num_reads::switch_cpus_1.data      1375064                       # Number of read requests responded to by this memory
system.mem_ctrls0.num_reads::total            7477459                       # Number of read requests responded to by this memory
system.mem_ctrls0.num_writes::writebacks      3155868                       # Number of write requests responded to by this memory
system.mem_ctrls0.num_writes::total           3155868                       # Number of write requests responded to by this memory
system.mem_ctrls0.bw_read::cpu.inst                51                       # Total read bandwidth from this memory (bytes/s)
system.mem_ctrls0.bw_read::switch_cpus.inst        58765                       # Total read bandwidth from this memory (bytes/s)
system.mem_ctrls0.bw_read::switch_cpus.data    155697513                       # Total read bandwidth from this memory (bytes/s)
system.mem_ctrls0.bw_read::switch_cpus_1.inst        23537                       # Total read bandwidth from this memory (bytes/s)
system.mem_ctrls0.bw_read::switch_cpus_1.data     35102166                       # Total read bandwidth from this memory (bytes/s)
system.mem_ctrls0.bw_read::total            190882032                       # Total read bandwidth from this memory (bytes/s)
system.mem_ctrls0.bw_inst_read::cpu.inst           51                       # Instruction read bandwidth from this memory (bytes/s)
system.mem_ctrls0.bw_inst_read::switch_cpus.inst        58765                       # Instruction read bandwidth from this memory (bytes/s)
system.mem_ctrls0.bw_inst_read::switch_cpus_1.inst        23537                       # Instruction read bandwidth from this memory (bytes/s)
system.mem_ctrls0.bw_inst_read::total           82352                       # Instruction read bandwidth from this memory (bytes/s)
system.mem_ctrls0.bw_write::writebacks       80561926                       # Write bandwidth from this memory (bytes/s)
system.mem_ctrls0.bw_write::total            80561926                       # Write bandwidth from this memory (bytes/s)
system.mem_ctrls0.bw_total::writebacks       80561926                       # Total bandwidth to/from this memory (bytes/s)
system.mem_ctrls0.bw_total::cpu.inst               51                       # Total bandwidth to/from this memory (bytes/s)
system.mem_ctrls0.bw_total::switch_cpus.inst        58765                       # Total bandwidth to/from this memory (bytes/s)
system.mem_ctrls0.bw_total::switch_cpus.data    155697513                       # Total bandwidth to/from this memory (bytes/s)
system.mem_ctrls0.bw_total::switch_cpus_1.inst        23537                       # Total bandwidth to/from this memory (bytes/s)
system.mem_ctrls0.bw_total::switch_cpus_1.data     35102166                       # Total bandwidth to/from this memory (bytes/s)
system.mem_ctrls0.bw_total::total           271443958                       # Total bandwidth to/from this memory (bytes/s)
system.mem_ctrls0.readReqs                    7477459                       # Number of read requests accepted
system.mem_ctrls0.writeReqs                   3155868                       # Number of write requests accepted
system.mem_ctrls0.readBursts                  7477459                       # Number of DRAM read bursts, including those serviced by the write queue
system.mem_ctrls0.writeBursts                 3155868                       # Number of DRAM write bursts, including those merged in the write queue
system.mem_ctrls0.bytesReadDRAM             478266112                       # Total number of bytes read from DRAM
system.mem_ctrls0.bytesReadWrQ                 291264                       # Total number of bytes read from write queue
system.mem_ctrls0.bytesWritten              201973824                       # Total number of bytes written to DRAM
system.mem_ctrls0.bytesReadSys              478557376                       # Total read bytes from the system interface side
system.mem_ctrls0.bytesWrittenSys           201975552                       # Total written bytes from the system interface side
system.mem_ctrls0.servicedByWrQ                  4551                       # Number of DRAM read bursts serviced by the write queue
system.mem_ctrls0.mergedWrBursts                    0                       # Number of DRAM write bursts merged with an existing one
system.mem_ctrls0.neitherReadNorWriteReqs            0                       # Number of requests that are neither read nor write
system.mem_ctrls0.perBankRdBursts::0           462691                       # Per bank write bursts
system.mem_ctrls0.perBankRdBursts::1           473525                       # Per bank write bursts
system.mem_ctrls0.perBankRdBursts::2           470961                       # Per bank write bursts
system.mem_ctrls0.perBankRdBursts::3           452153                       # Per bank write bursts
system.mem_ctrls0.perBankRdBursts::4           451801                       # Per bank write bursts
system.mem_ctrls0.perBankRdBursts::5           473187                       # Per bank write bursts
system.mem_ctrls0.perBankRdBursts::6           482579                       # Per bank write bursts
system.mem_ctrls0.perBankRdBursts::7           480398                       # Per bank write bursts
system.mem_ctrls0.perBankRdBursts::8           490288                       # Per bank write bursts
system.mem_ctrls0.perBankRdBursts::9           471279                       # Per bank write bursts
system.mem_ctrls0.perBankRdBursts::10          453421                       # Per bank write bursts
system.mem_ctrls0.perBankRdBursts::11          452694                       # Per bank write bursts
system.mem_ctrls0.perBankRdBursts::12          450156                       # Per bank write bursts
system.mem_ctrls0.perBankRdBursts::13          469909                       # Per bank write bursts
system.mem_ctrls0.perBankRdBursts::14          472993                       # Per bank write bursts
system.mem_ctrls0.perBankRdBursts::15          464873                       # Per bank write bursts
system.mem_ctrls0.perBankWrBursts::0           196618                       # Per bank write bursts
system.mem_ctrls0.perBankWrBursts::1           196667                       # Per bank write bursts
system.mem_ctrls0.perBankWrBursts::2           199812                       # Per bank write bursts
system.mem_ctrls0.perBankWrBursts::3           187764                       # Per bank write bursts
system.mem_ctrls0.perBankWrBursts::4           189845                       # Per bank write bursts
system.mem_ctrls0.perBankWrBursts::5           199759                       # Per bank write bursts
system.mem_ctrls0.perBankWrBursts::6           207260                       # Per bank write bursts
system.mem_ctrls0.perBankWrBursts::7           205682                       # Per bank write bursts
system.mem_ctrls0.perBankWrBursts::8           206889                       # Per bank write bursts
system.mem_ctrls0.perBankWrBursts::9           196676                       # Per bank write bursts
system.mem_ctrls0.perBankWrBursts::10          193177                       # Per bank write bursts
system.mem_ctrls0.perBankWrBursts::11          195345                       # Per bank write bursts
system.mem_ctrls0.perBankWrBursts::12          187604                       # Per bank write bursts
system.mem_ctrls0.perBankWrBursts::13          196480                       # Per bank write bursts
system.mem_ctrls0.perBankWrBursts::14          201627                       # Per bank write bursts
system.mem_ctrls0.perBankWrBursts::15          194636                       # Per bank write bursts
system.mem_ctrls0.numRdRetry                        0                       # Number of times read queue was full causing retry
system.mem_ctrls0.numWrRetry                        0                       # Number of times write queue was full causing retry
system.mem_ctrls0.totGap                 2507084345727                       # Total gap between requests
system.mem_ctrls0.readPktSize::0                    0                       # Read request sizes (log2)
system.mem_ctrls0.readPktSize::1                    0                       # Read request sizes (log2)
system.mem_ctrls0.readPktSize::2                    0                       # Read request sizes (log2)
system.mem_ctrls0.readPktSize::3                    0                       # Read request sizes (log2)
system.mem_ctrls0.readPktSize::4                    0                       # Read request sizes (log2)
system.mem_ctrls0.readPktSize::5                    0                       # Read request sizes (log2)
system.mem_ctrls0.readPktSize::6              7477459                       # Read request sizes (log2)
system.mem_ctrls0.writePktSize::0                   0                       # Write request sizes (log2)
system.mem_ctrls0.writePktSize::1                   0                       # Write request sizes (log2)
system.mem_ctrls0.writePktSize::2                   0                       # Write request sizes (log2)
system.mem_ctrls0.writePktSize::3                   0                       # Write request sizes (log2)
system.mem_ctrls0.writePktSize::4                   0                       # Write request sizes (log2)
system.mem_ctrls0.writePktSize::5                   0                       # Write request sizes (log2)
system.mem_ctrls0.writePktSize::6             3155868                       # Write request sizes (log2)
system.mem_ctrls0.rdQLenPdf::0                7174563                       # What read queue length does an incoming req see
system.mem_ctrls0.rdQLenPdf::1                 263701                       # What read queue length does an incoming req see
system.mem_ctrls0.rdQLenPdf::2                  32486                       # What read queue length does an incoming req see
system.mem_ctrls0.rdQLenPdf::3                   2158                       # What read queue length does an incoming req see
system.mem_ctrls0.rdQLenPdf::4                      0                       # What read queue length does an incoming req see
system.mem_ctrls0.rdQLenPdf::5                      0                       # What read queue length does an incoming req see
system.mem_ctrls0.rdQLenPdf::6                      0                       # What read queue length does an incoming req see
system.mem_ctrls0.rdQLenPdf::7                      0                       # What read queue length does an incoming req see
system.mem_ctrls0.rdQLenPdf::8                      0                       # What read queue length does an incoming req see
system.mem_ctrls0.rdQLenPdf::9                      0                       # What read queue length does an incoming req see
system.mem_ctrls0.rdQLenPdf::10                     0                       # What read queue length does an incoming req see
system.mem_ctrls0.rdQLenPdf::11                     0                       # What read queue length does an incoming req see
system.mem_ctrls0.rdQLenPdf::12                     0                       # What read queue length does an incoming req see
system.mem_ctrls0.rdQLenPdf::13                     0                       # What read queue length does an incoming req see
system.mem_ctrls0.rdQLenPdf::14                     0                       # What read queue length does an incoming req see
system.mem_ctrls0.rdQLenPdf::15                     0                       # What read queue length does an incoming req see
system.mem_ctrls0.rdQLenPdf::16                     0                       # What read queue length does an incoming req see
system.mem_ctrls0.rdQLenPdf::17                     0                       # What read queue length does an incoming req see
system.mem_ctrls0.rdQLenPdf::18                     0                       # What read queue length does an incoming req see
system.mem_ctrls0.rdQLenPdf::19                     0                       # What read queue length does an incoming req see
system.mem_ctrls0.rdQLenPdf::20                     0                       # What read queue length does an incoming req see
system.mem_ctrls0.rdQLenPdf::21                     0                       # What read queue length does an incoming req see
system.mem_ctrls0.rdQLenPdf::22                     0                       # What read queue length does an incoming req see
system.mem_ctrls0.rdQLenPdf::23                     0                       # What read queue length does an incoming req see
system.mem_ctrls0.rdQLenPdf::24                     0                       # What read queue length does an incoming req see
system.mem_ctrls0.rdQLenPdf::25                     0                       # What read queue length does an incoming req see
system.mem_ctrls0.rdQLenPdf::26                     0                       # What read queue length does an incoming req see
system.mem_ctrls0.rdQLenPdf::27                     0                       # What read queue length does an incoming req see
system.mem_ctrls0.rdQLenPdf::28                     0                       # What read queue length does an incoming req see
system.mem_ctrls0.rdQLenPdf::29                     0                       # What read queue length does an incoming req see
system.mem_ctrls0.rdQLenPdf::30                     0                       # What read queue length does an incoming req see
system.mem_ctrls0.rdQLenPdf::31                     0                       # What read queue length does an incoming req see
system.mem_ctrls0.wrQLenPdf::0                      2                       # What write queue length does an incoming req see
system.mem_ctrls0.wrQLenPdf::1                      2                       # What write queue length does an incoming req see
system.mem_ctrls0.wrQLenPdf::2                      2                       # What write queue length does an incoming req see
system.mem_ctrls0.wrQLenPdf::3                      2                       # What write queue length does an incoming req see
system.mem_ctrls0.wrQLenPdf::4                      2                       # What write queue length does an incoming req see
system.mem_ctrls0.wrQLenPdf::5                      2                       # What write queue length does an incoming req see
system.mem_ctrls0.wrQLenPdf::6                      2                       # What write queue length does an incoming req see
system.mem_ctrls0.wrQLenPdf::7                      2                       # What write queue length does an incoming req see
system.mem_ctrls0.wrQLenPdf::8                      2                       # What write queue length does an incoming req see
system.mem_ctrls0.wrQLenPdf::9                      2                       # What write queue length does an incoming req see
system.mem_ctrls0.wrQLenPdf::10                     2                       # What write queue length does an incoming req see
system.mem_ctrls0.wrQLenPdf::11                     2                       # What write queue length does an incoming req see
system.mem_ctrls0.wrQLenPdf::12                     2                       # What write queue length does an incoming req see
system.mem_ctrls0.wrQLenPdf::13                     2                       # What write queue length does an incoming req see
system.mem_ctrls0.wrQLenPdf::14                     2                       # What write queue length does an incoming req see
system.mem_ctrls0.wrQLenPdf::15                107139                       # What write queue length does an incoming req see
system.mem_ctrls0.wrQLenPdf::16                111113                       # What write queue length does an incoming req see
system.mem_ctrls0.wrQLenPdf::17                179810                       # What write queue length does an incoming req see
system.mem_ctrls0.wrQLenPdf::18                183695                       # What write queue length does an incoming req see
system.mem_ctrls0.wrQLenPdf::19                183823                       # What write queue length does an incoming req see
system.mem_ctrls0.wrQLenPdf::20                183723                       # What write queue length does an incoming req see
system.mem_ctrls0.wrQLenPdf::21                183632                       # What write queue length does an incoming req see
system.mem_ctrls0.wrQLenPdf::22                183521                       # What write queue length does an incoming req see
system.mem_ctrls0.wrQLenPdf::23                183522                       # What write queue length does an incoming req see
system.mem_ctrls0.wrQLenPdf::24                183525                       # What write queue length does an incoming req see
system.mem_ctrls0.wrQLenPdf::25                183456                       # What write queue length does an incoming req see
system.mem_ctrls0.wrQLenPdf::26                183491                       # What write queue length does an incoming req see
system.mem_ctrls0.wrQLenPdf::27                183744                       # What write queue length does an incoming req see
system.mem_ctrls0.wrQLenPdf::28                183826                       # What write queue length does an incoming req see
system.mem_ctrls0.wrQLenPdf::29                186387                       # What write queue length does an incoming req see
system.mem_ctrls0.wrQLenPdf::30                185009                       # What write queue length does an incoming req see
system.mem_ctrls0.wrQLenPdf::31                183206                       # What write queue length does an incoming req see
system.mem_ctrls0.wrQLenPdf::32                183156                       # What write queue length does an incoming req see
system.mem_ctrls0.wrQLenPdf::33                    55                       # What write queue length does an incoming req see
system.mem_ctrls0.wrQLenPdf::34                     4                       # What write queue length does an incoming req see
system.mem_ctrls0.wrQLenPdf::35                     1                       # What write queue length does an incoming req see
system.mem_ctrls0.wrQLenPdf::36                     0                       # What write queue length does an incoming req see
system.mem_ctrls0.wrQLenPdf::37                     0                       # What write queue length does an incoming req see
system.mem_ctrls0.wrQLenPdf::38                     0                       # What write queue length does an incoming req see
system.mem_ctrls0.wrQLenPdf::39                     0                       # What write queue length does an incoming req see
system.mem_ctrls0.wrQLenPdf::40                     0                       # What write queue length does an incoming req see
system.mem_ctrls0.wrQLenPdf::41                     0                       # What write queue length does an incoming req see
system.mem_ctrls0.wrQLenPdf::42                     0                       # What write queue length does an incoming req see
system.mem_ctrls0.wrQLenPdf::43                     0                       # What write queue length does an incoming req see
system.mem_ctrls0.wrQLenPdf::44                     0                       # What write queue length does an incoming req see
system.mem_ctrls0.wrQLenPdf::45                     0                       # What write queue length does an incoming req see
system.mem_ctrls0.wrQLenPdf::46                     0                       # What write queue length does an incoming req see
system.mem_ctrls0.wrQLenPdf::47                     0                       # What write queue length does an incoming req see
system.mem_ctrls0.wrQLenPdf::48                     0                       # What write queue length does an incoming req see
system.mem_ctrls0.wrQLenPdf::49                     0                       # What write queue length does an incoming req see
system.mem_ctrls0.wrQLenPdf::50                     0                       # What write queue length does an incoming req see
system.mem_ctrls0.wrQLenPdf::51                     0                       # What write queue length does an incoming req see
system.mem_ctrls0.wrQLenPdf::52                     0                       # What write queue length does an incoming req see
system.mem_ctrls0.wrQLenPdf::53                     0                       # What write queue length does an incoming req see
system.mem_ctrls0.wrQLenPdf::54                     0                       # What write queue length does an incoming req see
system.mem_ctrls0.wrQLenPdf::55                     0                       # What write queue length does an incoming req see
system.mem_ctrls0.wrQLenPdf::56                     0                       # What write queue length does an incoming req see
system.mem_ctrls0.wrQLenPdf::57                     0                       # What write queue length does an incoming req see
system.mem_ctrls0.wrQLenPdf::58                     0                       # What write queue length does an incoming req see
system.mem_ctrls0.wrQLenPdf::59                     0                       # What write queue length does an incoming req see
system.mem_ctrls0.wrQLenPdf::60                     0                       # What write queue length does an incoming req see
system.mem_ctrls0.wrQLenPdf::61                     0                       # What write queue length does an incoming req see
system.mem_ctrls0.wrQLenPdf::62                     0                       # What write queue length does an incoming req see
system.mem_ctrls0.wrQLenPdf::63                     0                       # What write queue length does an incoming req see
system.mem_ctrls0.bytesPerActivate::samples      6731160                       # Bytes accessed per row activation
system.mem_ctrls0.bytesPerActivate::mean   101.058181                       # Bytes accessed per row activation
system.mem_ctrls0.bytesPerActivate::gmean    83.178367                       # Bytes accessed per row activation
system.mem_ctrls0.bytesPerActivate::stdev    94.611971                       # Bytes accessed per row activation
system.mem_ctrls0.bytesPerActivate::0-127      5108271     75.89%     75.89% # Bytes accessed per row activation
system.mem_ctrls0.bytesPerActivate::128-255      1135159     16.86%     92.75% # Bytes accessed per row activation
system.mem_ctrls0.bytesPerActivate::256-383       269721      4.01%     96.76% # Bytes accessed per row activation
system.mem_ctrls0.bytesPerActivate::384-511       119612      1.78%     98.54% # Bytes accessed per row activation
system.mem_ctrls0.bytesPerActivate::512-639        57924      0.86%     99.40% # Bytes accessed per row activation
system.mem_ctrls0.bytesPerActivate::640-767        21956      0.33%     99.72% # Bytes accessed per row activation
system.mem_ctrls0.bytesPerActivate::768-895         9322      0.14%     99.86% # Bytes accessed per row activation
system.mem_ctrls0.bytesPerActivate::896-1023         5053      0.08%     99.94% # Bytes accessed per row activation
system.mem_ctrls0.bytesPerActivate::1024-1151         4142      0.06%    100.00% # Bytes accessed per row activation
system.mem_ctrls0.bytesPerActivate::total      6731160                       # Bytes accessed per row activation
system.mem_ctrls0.rdPerTurnAround::samples       183150                       # Reads before turning the bus around for writes
system.mem_ctrls0.rdPerTurnAround::mean     40.801938                       # Reads before turning the bus around for writes
system.mem_ctrls0.rdPerTurnAround::gmean    39.113227                       # Reads before turning the bus around for writes
system.mem_ctrls0.rdPerTurnAround::stdev    56.237763                       # Reads before turning the bus around for writes
system.mem_ctrls0.rdPerTurnAround::0-1023       183149    100.00%    100.00% # Reads before turning the bus around for writes
system.mem_ctrls0.rdPerTurnAround::23552-24575            1      0.00%    100.00% # Reads before turning the bus around for writes
system.mem_ctrls0.rdPerTurnAround::total       183150                       # Reads before turning the bus around for writes
system.mem_ctrls0.wrPerTurnAround::samples       183150                       # Writes before turning the bus around for reads
system.mem_ctrls0.wrPerTurnAround::mean     17.230909                       # Writes before turning the bus around for reads
system.mem_ctrls0.wrPerTurnAround::gmean    17.199441                       # Writes before turning the bus around for reads
system.mem_ctrls0.wrPerTurnAround::stdev     1.036486                       # Writes before turning the bus around for reads
system.mem_ctrls0.wrPerTurnAround::16           73329     40.04%     40.04% # Writes before turning the bus around for reads
system.mem_ctrls0.wrPerTurnAround::17            2383      1.30%     41.34% # Writes before turning the bus around for reads
system.mem_ctrls0.wrPerTurnAround::18           99790     54.49%     95.82% # Writes before turning the bus around for reads
system.mem_ctrls0.wrPerTurnAround::19            7163      3.91%     99.74% # Writes before turning the bus around for reads
system.mem_ctrls0.wrPerTurnAround::20             443      0.24%     99.98% # Writes before turning the bus around for reads
system.mem_ctrls0.wrPerTurnAround::21              40      0.02%    100.00% # Writes before turning the bus around for reads
system.mem_ctrls0.wrPerTurnAround::22               1      0.00%    100.00% # Writes before turning the bus around for reads
system.mem_ctrls0.wrPerTurnAround::27               1      0.00%    100.00% # Writes before turning the bus around for reads
system.mem_ctrls0.wrPerTurnAround::total       183150                       # Writes before turning the bus around for reads
system.mem_ctrls0.totQLat                157457939982                       # Total ticks spent queuing
system.mem_ctrls0.totMemAccLat           297574964982                       # Total ticks spent from burst creation until serviced by the DRAM
system.mem_ctrls0.totBusLat               37364540000                       # Total ticks spent in databus transfers
system.mem_ctrls0.avgQLat                    21070.50                       # Average queueing delay per DRAM burst
system.mem_ctrls0.avgBusLat                   5000.00                       # Average bus latency per DRAM burst
system.mem_ctrls0.avgMemAccLat               39820.50                       # Average memory access latency per DRAM burst
system.mem_ctrls0.avgRdBW                      190.77                       # Average DRAM read bandwidth in MiByte/s
system.mem_ctrls0.avgWrBW                       80.56                       # Average achieved write bandwidth in MiByte/s
system.mem_ctrls0.avgRdBWSys                   190.88                       # Average system read bandwidth in MiByte/s
system.mem_ctrls0.avgWrBWSys                    80.56                       # Average system write bandwidth in MiByte/s
system.mem_ctrls0.peakBW                     12800.00                       # Theoretical peak bandwidth in MiByte/s
system.mem_ctrls0.busUtil                        2.12                       # Data bus utilization in percentage
system.mem_ctrls0.busUtilRead                    1.49                       # Data bus utilization in percentage for reads
system.mem_ctrls0.busUtilWrite                   0.63                       # Data bus utilization in percentage for writes
system.mem_ctrls0.avgRdQLen                      1.02                       # Average read queue length when enqueuing
system.mem_ctrls0.avgWrQLen                     24.81                       # Average write queue length when enqueuing
system.mem_ctrls0.readRowHits                 3840248                       # Number of row buffer hits during reads
system.mem_ctrls0.writeRowHits                  57332                       # Number of row buffer hits during writes
system.mem_ctrls0.readRowHitRate                51.39                       # Row buffer hit rate for reads
system.mem_ctrls0.writeRowHitRate                1.82                       # Row buffer hit rate for writes
system.mem_ctrls0.avgGap                    235776.10                       # Average gap between requests
system.mem_ctrls0.pageHitRate                   36.67                       # Row buffer hit rate, read and write combined
system.mem_ctrls0_0.actEnergy             24066705180                       # Energy for activate commands per rank (pJ)
system.mem_ctrls0_0.preEnergy             12791734395                       # Energy for precharge commands per rank (pJ)
system.mem_ctrls0_0.readEnergy            26755686300                       # Energy for read commands per rank (pJ)
system.mem_ctrls0_0.writeEnergy            8265384540                       # Energy for write commands per rank (pJ)
system.mem_ctrls0_0.refreshEnergy        198839113200.000031                       # Energy for refresh commands per rank (pJ)
system.mem_ctrls0_0.actBackEnergy        160305329970                       # Energy for active background per rank (pJ)
system.mem_ctrls0_0.preBackEnergy          4703665440                       # Energy for precharge background per rank (pJ)
system.mem_ctrls0_0.actPowerDownEnergy   854902008450                       # Energy for active power-down per rank (pJ)
system.mem_ctrls0_0.prePowerDownEnergy    96775188960                       # Energy for precharge power-down per rank (pJ)
system.mem_ctrls0_0.selfRefreshEnergy      6116714655                       # Energy for self refresh per rank (pJ)
system.mem_ctrls0_0.totalEnergy          1393542538260                       # Total energy per rank (pJ)
system.mem_ctrls0_0.averagePower           555.841876                       # Core power per rank (mW)
system.mem_ctrls0_0.totalIdleTime        2143251663442                       # Total Idle time Per DRAM Rank
system.mem_ctrls0_0.memoryStateTime::IDLE   2873597440                       # Time in different power states
system.mem_ctrls0_0.memoryStateTime::REF  84136716000                       # Time in different power states
system.mem_ctrls0_0.memoryStateTime::SREF  16437994811                       # Time in different power states
system.mem_ctrls0_0.memoryStateTime::PRE_PDN 252017430755                       # Time in different power states
system.mem_ctrls0_0.memoryStateTime::ACT 276822016408                       # Time in different power states
system.mem_ctrls0_0.memoryStateTime::ACT_PDN 1874796702534                       # Time in different power states
system.mem_ctrls0_1.actEnergy             23993841480                       # Energy for activate commands per rank (pJ)
system.mem_ctrls0_1.preEnergy             12753017805                       # Energy for precharge commands per rank (pJ)
system.mem_ctrls0_1.readEnergy            26600876820                       # Energy for read commands per rank (pJ)
system.mem_ctrls0_1.writeEnergy            8208105480                       # Energy for write commands per rank (pJ)
system.mem_ctrls0_1.refreshEnergy        198857552400.000031                       # Energy for refresh commands per rank (pJ)
system.mem_ctrls0_1.actBackEnergy        160344268380                       # Energy for active background per rank (pJ)
system.mem_ctrls0_1.preBackEnergy          4706614560                       # Energy for precharge background per rank (pJ)
system.mem_ctrls0_1.actPowerDownEnergy   853423730550                       # Energy for active power-down per rank (pJ)
system.mem_ctrls0_1.prePowerDownEnergy    97689460320                       # Energy for precharge power-down per rank (pJ)
system.mem_ctrls0_1.selfRefreshEnergy      6377235180                       # Energy for self refresh per rank (pJ)
system.mem_ctrls0_1.totalEnergy          1392976421385                       # Total energy per rank (pJ)
system.mem_ctrls0_1.averagePower           555.616071                       # Core power per rank (mW)
system.mem_ctrls0_1.totalIdleTime        2143153194718                       # Total Idle time Per DRAM Rank
system.mem_ctrls0_1.memoryStateTime::IDLE   2912861270                       # Time in different power states
system.mem_ctrls0_1.memoryStateTime::REF  84145356000                       # Time in different power states
system.mem_ctrls0_1.memoryStateTime::SREF  17204304758                       # Time in different power states
system.mem_ctrls0_1.memoryStateTime::PRE_PDN 254395590609                       # Time in different power states
system.mem_ctrls0_1.memoryStateTime::ACT 276872973474                       # Time in different power states
system.mem_ctrls0_1.memoryStateTime::ACT_PDN 1871553371837                       # Time in different power states
system.mem_ctrls1.pwrStateResidencyTicks::UNDEFINED 129460080982680                       # Cumulative time (in ticks) in various power states
system.mem_ctrls1.bytes_read::cpu.data            128                       # Number of bytes read from this memory
system.mem_ctrls1.bytes_read::switch_cpus.inst       170112                       # Number of bytes read from this memory
system.mem_ctrls1.bytes_read::switch_cpus.data    390939968                       # Number of bytes read from this memory
system.mem_ctrls1.bytes_read::switch_cpus_1.inst        56960                       # Number of bytes read from this memory
system.mem_ctrls1.bytes_read::switch_cpus_1.data     88115200                       # Number of bytes read from this memory
system.mem_ctrls1.bytes_read::total         479282368                       # Number of bytes read from this memory
system.mem_ctrls1.bytes_inst_read::switch_cpus.inst       170112                       # Number of instructions bytes read from this memory
system.mem_ctrls1.bytes_inst_read::switch_cpus_1.inst        56960                       # Number of instructions bytes read from this memory
system.mem_ctrls1.bytes_inst_read::total       227072                       # Number of instructions bytes read from this memory
system.mem_ctrls1.bytes_written::writebacks    201369344                       # Number of bytes written to this memory
system.mem_ctrls1.bytes_written::total      201369344                       # Number of bytes written to this memory
system.mem_ctrls1.num_reads::cpu.data               2                       # Number of read requests responded to by this memory
system.mem_ctrls1.num_reads::switch_cpus.inst         2658                       # Number of read requests responded to by this memory
system.mem_ctrls1.num_reads::switch_cpus.data      6108437                       # Number of read requests responded to by this memory
system.mem_ctrls1.num_reads::switch_cpus_1.inst          890                       # Number of read requests responded to by this memory
system.mem_ctrls1.num_reads::switch_cpus_1.data      1376800                       # Number of read requests responded to by this memory
system.mem_ctrls1.num_reads::total            7488787                       # Number of read requests responded to by this memory
system.mem_ctrls1.num_writes::writebacks      3146396                       # Number of write requests responded to by this memory
system.mem_ctrls1.num_writes::total           3146396                       # Number of write requests responded to by this memory
system.mem_ctrls1.bw_read::cpu.data                51                       # Total read bandwidth from this memory (bytes/s)
system.mem_ctrls1.bw_read::switch_cpus.inst        67853                       # Total read bandwidth from this memory (bytes/s)
system.mem_ctrls1.bw_read::switch_cpus.data    155934104                       # Total read bandwidth from this memory (bytes/s)
system.mem_ctrls1.bw_read::switch_cpus_1.inst        22720                       # Total read bandwidth from this memory (bytes/s)
system.mem_ctrls1.bw_read::switch_cpus_1.data     35146482                       # Total read bandwidth from this memory (bytes/s)
system.mem_ctrls1.bw_read::total            191171209                       # Total read bandwidth from this memory (bytes/s)
system.mem_ctrls1.bw_inst_read::switch_cpus.inst        67853                       # Instruction read bandwidth from this memory (bytes/s)
system.mem_ctrls1.bw_inst_read::switch_cpus_1.inst        22720                       # Instruction read bandwidth from this memory (bytes/s)
system.mem_ctrls1.bw_inst_read::total           90572                       # Instruction read bandwidth from this memory (bytes/s)
system.mem_ctrls1.bw_write::writebacks       80320128                       # Write bandwidth from this memory (bytes/s)
system.mem_ctrls1.bw_write::total            80320128                       # Write bandwidth from this memory (bytes/s)
system.mem_ctrls1.bw_total::writebacks       80320128                       # Total bandwidth to/from this memory (bytes/s)
system.mem_ctrls1.bw_total::cpu.data               51                       # Total bandwidth to/from this memory (bytes/s)
system.mem_ctrls1.bw_total::switch_cpus.inst        67853                       # Total bandwidth to/from this memory (bytes/s)
system.mem_ctrls1.bw_total::switch_cpus.data    155934104                       # Total bandwidth to/from this memory (bytes/s)
system.mem_ctrls1.bw_total::switch_cpus_1.inst        22720                       # Total bandwidth to/from this memory (bytes/s)
system.mem_ctrls1.bw_total::switch_cpus_1.data     35146482                       # Total bandwidth to/from this memory (bytes/s)
system.mem_ctrls1.bw_total::total           271491337                       # Total bandwidth to/from this memory (bytes/s)
system.mem_ctrls1.readReqs                    7488787                       # Number of read requests accepted
system.mem_ctrls1.writeReqs                   3146396                       # Number of write requests accepted
system.mem_ctrls1.readBursts                  7488787                       # Number of DRAM read bursts, including those serviced by the write queue
system.mem_ctrls1.writeBursts                 3146396                       # Number of DRAM write bursts, including those merged in the write queue
system.mem_ctrls1.bytesReadDRAM             478986048                       # Total number of bytes read from DRAM
system.mem_ctrls1.bytesReadWrQ                 296320                       # Total number of bytes read from write queue
system.mem_ctrls1.bytesWritten              201367680                       # Total number of bytes written to DRAM
system.mem_ctrls1.bytesReadSys              479282368                       # Total read bytes from the system interface side
system.mem_ctrls1.bytesWrittenSys           201369344                       # Total written bytes from the system interface side
system.mem_ctrls1.servicedByWrQ                  4630                       # Number of DRAM read bursts serviced by the write queue
system.mem_ctrls1.mergedWrBursts                    0                       # Number of DRAM write bursts merged with an existing one
system.mem_ctrls1.neitherReadNorWriteReqs            0                       # Number of requests that are neither read nor write
system.mem_ctrls1.perBankRdBursts::0           465145                       # Per bank write bursts
system.mem_ctrls1.perBankRdBursts::1           469160                       # Per bank write bursts
system.mem_ctrls1.perBankRdBursts::2           468912                       # Per bank write bursts
system.mem_ctrls1.perBankRdBursts::3           456052                       # Per bank write bursts
system.mem_ctrls1.perBankRdBursts::4           452490                       # Per bank write bursts
system.mem_ctrls1.perBankRdBursts::5           470460                       # Per bank write bursts
system.mem_ctrls1.perBankRdBursts::6           486216                       # Per bank write bursts
system.mem_ctrls1.perBankRdBursts::7           476661                       # Per bank write bursts
system.mem_ctrls1.perBankRdBursts::8           494380                       # Per bank write bursts
system.mem_ctrls1.perBankRdBursts::9           475748                       # Per bank write bursts
system.mem_ctrls1.perBankRdBursts::10          455845                       # Per bank write bursts
system.mem_ctrls1.perBankRdBursts::11          452738                       # Per bank write bursts
system.mem_ctrls1.perBankRdBursts::12          452349                       # Per bank write bursts
system.mem_ctrls1.perBankRdBursts::13          468842                       # Per bank write bursts
system.mem_ctrls1.perBankRdBursts::14          474675                       # Per bank write bursts
system.mem_ctrls1.perBankRdBursts::15          464484                       # Per bank write bursts
system.mem_ctrls1.perBankWrBursts::0           196059                       # Per bank write bursts
system.mem_ctrls1.perBankWrBursts::1           194592                       # Per bank write bursts
system.mem_ctrls1.perBankWrBursts::2           195962                       # Per bank write bursts
system.mem_ctrls1.perBankWrBursts::3           190042                       # Per bank write bursts
system.mem_ctrls1.perBankWrBursts::4           192455                       # Per bank write bursts
system.mem_ctrls1.perBankWrBursts::5           195923                       # Per bank write bursts
system.mem_ctrls1.perBankWrBursts::6           205021                       # Per bank write bursts
system.mem_ctrls1.perBankWrBursts::7           198357                       # Per bank write bursts
system.mem_ctrls1.perBankWrBursts::8           208964                       # Per bank write bursts
system.mem_ctrls1.perBankWrBursts::9           195638                       # Per bank write bursts
system.mem_ctrls1.perBankWrBursts::10          196630                       # Per bank write bursts
system.mem_ctrls1.perBankWrBursts::11          193371                       # Per bank write bursts
system.mem_ctrls1.perBankWrBursts::12          189482                       # Per bank write bursts
system.mem_ctrls1.perBankWrBursts::13          196809                       # Per bank write bursts
system.mem_ctrls1.perBankWrBursts::14          200502                       # Per bank write bursts
system.mem_ctrls1.perBankWrBursts::15          196563                       # Per bank write bursts
system.mem_ctrls1.numRdRetry                        0                       # Number of times read queue was full causing retry
system.mem_ctrls1.numWrRetry                        0                       # Number of times write queue was full causing retry
system.mem_ctrls1.totGap                 2507084056350                       # Total gap between requests
system.mem_ctrls1.readPktSize::0                    0                       # Read request sizes (log2)
system.mem_ctrls1.readPktSize::1                    0                       # Read request sizes (log2)
system.mem_ctrls1.readPktSize::2                    0                       # Read request sizes (log2)
system.mem_ctrls1.readPktSize::3                    0                       # Read request sizes (log2)
system.mem_ctrls1.readPktSize::4                    0                       # Read request sizes (log2)
system.mem_ctrls1.readPktSize::5                    0                       # Read request sizes (log2)
system.mem_ctrls1.readPktSize::6              7488787                       # Read request sizes (log2)
system.mem_ctrls1.writePktSize::0                   0                       # Write request sizes (log2)
system.mem_ctrls1.writePktSize::1                   0                       # Write request sizes (log2)
system.mem_ctrls1.writePktSize::2                   0                       # Write request sizes (log2)
system.mem_ctrls1.writePktSize::3                   0                       # Write request sizes (log2)
system.mem_ctrls1.writePktSize::4                   0                       # Write request sizes (log2)
system.mem_ctrls1.writePktSize::5                   0                       # Write request sizes (log2)
system.mem_ctrls1.writePktSize::6             3146396                       # Write request sizes (log2)
system.mem_ctrls1.rdQLenPdf::0                7185141                       # What read queue length does an incoming req see
system.mem_ctrls1.rdQLenPdf::1                 263862                       # What read queue length does an incoming req see
system.mem_ctrls1.rdQLenPdf::2                  33019                       # What read queue length does an incoming req see
system.mem_ctrls1.rdQLenPdf::3                   2135                       # What read queue length does an incoming req see
system.mem_ctrls1.rdQLenPdf::4                      0                       # What read queue length does an incoming req see
system.mem_ctrls1.rdQLenPdf::5                      0                       # What read queue length does an incoming req see
system.mem_ctrls1.rdQLenPdf::6                      0                       # What read queue length does an incoming req see
system.mem_ctrls1.rdQLenPdf::7                      0                       # What read queue length does an incoming req see
system.mem_ctrls1.rdQLenPdf::8                      0                       # What read queue length does an incoming req see
system.mem_ctrls1.rdQLenPdf::9                      0                       # What read queue length does an incoming req see
system.mem_ctrls1.rdQLenPdf::10                     0                       # What read queue length does an incoming req see
system.mem_ctrls1.rdQLenPdf::11                     0                       # What read queue length does an incoming req see
system.mem_ctrls1.rdQLenPdf::12                     0                       # What read queue length does an incoming req see
system.mem_ctrls1.rdQLenPdf::13                     0                       # What read queue length does an incoming req see
system.mem_ctrls1.rdQLenPdf::14                     0                       # What read queue length does an incoming req see
system.mem_ctrls1.rdQLenPdf::15                     0                       # What read queue length does an incoming req see
system.mem_ctrls1.rdQLenPdf::16                     0                       # What read queue length does an incoming req see
system.mem_ctrls1.rdQLenPdf::17                     0                       # What read queue length does an incoming req see
system.mem_ctrls1.rdQLenPdf::18                     0                       # What read queue length does an incoming req see
system.mem_ctrls1.rdQLenPdf::19                     0                       # What read queue length does an incoming req see
system.mem_ctrls1.rdQLenPdf::20                     0                       # What read queue length does an incoming req see
system.mem_ctrls1.rdQLenPdf::21                     0                       # What read queue length does an incoming req see
system.mem_ctrls1.rdQLenPdf::22                     0                       # What read queue length does an incoming req see
system.mem_ctrls1.rdQLenPdf::23                     0                       # What read queue length does an incoming req see
system.mem_ctrls1.rdQLenPdf::24                     0                       # What read queue length does an incoming req see
system.mem_ctrls1.rdQLenPdf::25                     0                       # What read queue length does an incoming req see
system.mem_ctrls1.rdQLenPdf::26                     0                       # What read queue length does an incoming req see
system.mem_ctrls1.rdQLenPdf::27                     0                       # What read queue length does an incoming req see
system.mem_ctrls1.rdQLenPdf::28                     0                       # What read queue length does an incoming req see
system.mem_ctrls1.rdQLenPdf::29                     0                       # What read queue length does an incoming req see
system.mem_ctrls1.rdQLenPdf::30                     0                       # What read queue length does an incoming req see
system.mem_ctrls1.rdQLenPdf::31                     0                       # What read queue length does an incoming req see
system.mem_ctrls1.wrQLenPdf::0                      2                       # What write queue length does an incoming req see
system.mem_ctrls1.wrQLenPdf::1                      2                       # What write queue length does an incoming req see
system.mem_ctrls1.wrQLenPdf::2                      2                       # What write queue length does an incoming req see
system.mem_ctrls1.wrQLenPdf::3                      2                       # What write queue length does an incoming req see
system.mem_ctrls1.wrQLenPdf::4                      2                       # What write queue length does an incoming req see
system.mem_ctrls1.wrQLenPdf::5                      2                       # What write queue length does an incoming req see
system.mem_ctrls1.wrQLenPdf::6                      2                       # What write queue length does an incoming req see
system.mem_ctrls1.wrQLenPdf::7                      2                       # What write queue length does an incoming req see
system.mem_ctrls1.wrQLenPdf::8                      2                       # What write queue length does an incoming req see
system.mem_ctrls1.wrQLenPdf::9                      2                       # What write queue length does an incoming req see
system.mem_ctrls1.wrQLenPdf::10                     2                       # What write queue length does an incoming req see
system.mem_ctrls1.wrQLenPdf::11                     2                       # What write queue length does an incoming req see
system.mem_ctrls1.wrQLenPdf::12                     2                       # What write queue length does an incoming req see
system.mem_ctrls1.wrQLenPdf::13                     2                       # What write queue length does an incoming req see
system.mem_ctrls1.wrQLenPdf::14                     2                       # What write queue length does an incoming req see
system.mem_ctrls1.wrQLenPdf::15                107221                       # What write queue length does an incoming req see
system.mem_ctrls1.wrQLenPdf::16                111176                       # What write queue length does an incoming req see
system.mem_ctrls1.wrQLenPdf::17                179248                       # What write queue length does an incoming req see
system.mem_ctrls1.wrQLenPdf::18                183131                       # What write queue length does an incoming req see
system.mem_ctrls1.wrQLenPdf::19                183225                       # What write queue length does an incoming req see
system.mem_ctrls1.wrQLenPdf::20                183077                       # What write queue length does an incoming req see
system.mem_ctrls1.wrQLenPdf::21                183008                       # What write queue length does an incoming req see
system.mem_ctrls1.wrQLenPdf::22                182972                       # What write queue length does an incoming req see
system.mem_ctrls1.wrQLenPdf::23                182922                       # What write queue length does an incoming req see
system.mem_ctrls1.wrQLenPdf::24                182897                       # What write queue length does an incoming req see
system.mem_ctrls1.wrQLenPdf::25                182867                       # What write queue length does an incoming req see
system.mem_ctrls1.wrQLenPdf::26                182855                       # What write queue length does an incoming req see
system.mem_ctrls1.wrQLenPdf::27                183110                       # What write queue length does an incoming req see
system.mem_ctrls1.wrQLenPdf::28                183246                       # What write queue length does an incoming req see
system.mem_ctrls1.wrQLenPdf::29                185765                       # What write queue length does an incoming req see
system.mem_ctrls1.wrQLenPdf::30                184384                       # What write queue length does an incoming req see
system.mem_ctrls1.wrQLenPdf::31                182626                       # What write queue length does an incoming req see
system.mem_ctrls1.wrQLenPdf::32                182568                       # What write queue length does an incoming req see
system.mem_ctrls1.wrQLenPdf::33                    62                       # What write queue length does an incoming req see
system.mem_ctrls1.wrQLenPdf::34                     6                       # What write queue length does an incoming req see
system.mem_ctrls1.wrQLenPdf::35                     0                       # What write queue length does an incoming req see
system.mem_ctrls1.wrQLenPdf::36                     0                       # What write queue length does an incoming req see
system.mem_ctrls1.wrQLenPdf::37                     0                       # What write queue length does an incoming req see
system.mem_ctrls1.wrQLenPdf::38                     0                       # What write queue length does an incoming req see
system.mem_ctrls1.wrQLenPdf::39                     0                       # What write queue length does an incoming req see
system.mem_ctrls1.wrQLenPdf::40                     0                       # What write queue length does an incoming req see
system.mem_ctrls1.wrQLenPdf::41                     0                       # What write queue length does an incoming req see
system.mem_ctrls1.wrQLenPdf::42                     0                       # What write queue length does an incoming req see
system.mem_ctrls1.wrQLenPdf::43                     0                       # What write queue length does an incoming req see
system.mem_ctrls1.wrQLenPdf::44                     0                       # What write queue length does an incoming req see
system.mem_ctrls1.wrQLenPdf::45                     0                       # What write queue length does an incoming req see
system.mem_ctrls1.wrQLenPdf::46                     0                       # What write queue length does an incoming req see
system.mem_ctrls1.wrQLenPdf::47                     0                       # What write queue length does an incoming req see
system.mem_ctrls1.wrQLenPdf::48                     0                       # What write queue length does an incoming req see
system.mem_ctrls1.wrQLenPdf::49                     0                       # What write queue length does an incoming req see
system.mem_ctrls1.wrQLenPdf::50                     0                       # What write queue length does an incoming req see
system.mem_ctrls1.wrQLenPdf::51                     0                       # What write queue length does an incoming req see
system.mem_ctrls1.wrQLenPdf::52                     0                       # What write queue length does an incoming req see
system.mem_ctrls1.wrQLenPdf::53                     0                       # What write queue length does an incoming req see
system.mem_ctrls1.wrQLenPdf::54                     0                       # What write queue length does an incoming req see
system.mem_ctrls1.wrQLenPdf::55                     0                       # What write queue length does an incoming req see
system.mem_ctrls1.wrQLenPdf::56                     0                       # What write queue length does an incoming req see
system.mem_ctrls1.wrQLenPdf::57                     0                       # What write queue length does an incoming req see
system.mem_ctrls1.wrQLenPdf::58                     0                       # What write queue length does an incoming req see
system.mem_ctrls1.wrQLenPdf::59                     0                       # What write queue length does an incoming req see
system.mem_ctrls1.wrQLenPdf::60                     0                       # What write queue length does an incoming req see
system.mem_ctrls1.wrQLenPdf::61                     0                       # What write queue length does an incoming req see
system.mem_ctrls1.wrQLenPdf::62                     0                       # What write queue length does an incoming req see
system.mem_ctrls1.wrQLenPdf::63                     0                       # What write queue length does an incoming req see
system.mem_ctrls1.bytesPerActivate::samples      6719047                       # Bytes accessed per row activation
system.mem_ctrls1.bytesPerActivate::mean   101.257446                       # Bytes accessed per row activation
system.mem_ctrls1.bytesPerActivate::gmean    83.286812                       # Bytes accessed per row activation
system.mem_ctrls1.bytesPerActivate::stdev    94.850218                       # Bytes accessed per row activation
system.mem_ctrls1.bytesPerActivate::0-127      5091470     75.78%     75.78% # Bytes accessed per row activation
system.mem_ctrls1.bytesPerActivate::128-255      1138235     16.94%     92.72% # Bytes accessed per row activation
system.mem_ctrls1.bytesPerActivate::256-383       269923      4.02%     96.73% # Bytes accessed per row activation
system.mem_ctrls1.bytesPerActivate::384-511       120348      1.79%     98.53% # Bytes accessed per row activation
system.mem_ctrls1.bytesPerActivate::512-639        58415      0.87%     99.39% # Bytes accessed per row activation
system.mem_ctrls1.bytesPerActivate::640-767        22078      0.33%     99.72% # Bytes accessed per row activation
system.mem_ctrls1.bytesPerActivate::768-895         9542      0.14%     99.87% # Bytes accessed per row activation
system.mem_ctrls1.bytesPerActivate::896-1023         5044      0.08%     99.94% # Bytes accessed per row activation
system.mem_ctrls1.bytesPerActivate::1024-1151         3992      0.06%    100.00% # Bytes accessed per row activation
system.mem_ctrls1.bytesPerActivate::total      6719047                       # Bytes accessed per row activation
system.mem_ctrls1.rdPerTurnAround::samples       182555                       # Reads before turning the bus around for writes
system.mem_ctrls1.rdPerTurnAround::mean     40.996565                       # Reads before turning the bus around for writes
system.mem_ctrls1.rdPerTurnAround::gmean    39.305205                       # Reads before turning the bus around for writes
system.mem_ctrls1.rdPerTurnAround::stdev    57.456238                       # Reads before turning the bus around for writes
system.mem_ctrls1.rdPerTurnAround::0-1023       182554    100.00%    100.00% # Reads before turning the bus around for writes
system.mem_ctrls1.rdPerTurnAround::23552-24575            1      0.00%    100.00% # Reads before turning the bus around for writes
system.mem_ctrls1.rdPerTurnAround::total       182555                       # Reads before turning the bus around for writes
system.mem_ctrls1.wrPerTurnAround::samples       182555                       # Writes before turning the bus around for reads
system.mem_ctrls1.wrPerTurnAround::mean     17.235189                       # Writes before turning the bus around for reads
system.mem_ctrls1.wrPerTurnAround::gmean    17.203840                       # Writes before turning the bus around for reads
system.mem_ctrls1.wrPerTurnAround::stdev     1.034335                       # Writes before turning the bus around for reads
system.mem_ctrls1.wrPerTurnAround::16           72649     39.80%     39.80% # Writes before turning the bus around for reads
system.mem_ctrls1.wrPerTurnAround::17            2390      1.31%     41.10% # Writes before turning the bus around for reads
system.mem_ctrls1.wrPerTurnAround::18           99921     54.73%     95.84% # Writes before turning the bus around for reads
system.mem_ctrls1.wrPerTurnAround::19            7163      3.92%     99.76% # Writes before turning the bus around for reads
system.mem_ctrls1.wrPerTurnAround::20             394      0.22%     99.98% # Writes before turning the bus around for reads
system.mem_ctrls1.wrPerTurnAround::21              35      0.02%    100.00% # Writes before turning the bus around for reads
system.mem_ctrls1.wrPerTurnAround::22               3      0.00%    100.00% # Writes before turning the bus around for reads
system.mem_ctrls1.wrPerTurnAround::total       182555                       # Writes before turning the bus around for reads
system.mem_ctrls1.totQLat                157688623889                       # Total ticks spent queuing
system.mem_ctrls1.totMemAccLat           298016567639                       # Total ticks spent from burst creation until serviced by the DRAM
system.mem_ctrls1.totBusLat               37420785000                       # Total ticks spent in databus transfers
system.mem_ctrls1.avgQLat                    21069.66                       # Average queueing delay per DRAM burst
system.mem_ctrls1.avgBusLat                   5000.00                       # Average bus latency per DRAM burst
system.mem_ctrls1.avgMemAccLat               39819.66                       # Average memory access latency per DRAM burst
system.mem_ctrls1.avgRdBW                      191.05                       # Average DRAM read bandwidth in MiByte/s
system.mem_ctrls1.avgWrBW                       80.32                       # Average achieved write bandwidth in MiByte/s
system.mem_ctrls1.avgRdBWSys                   191.17                       # Average system read bandwidth in MiByte/s
system.mem_ctrls1.avgWrBWSys                    80.32                       # Average system write bandwidth in MiByte/s
system.mem_ctrls1.peakBW                     12800.00                       # Theoretical peak bandwidth in MiByte/s
system.mem_ctrls1.busUtil                        2.12                       # Data bus utilization in percentage
system.mem_ctrls1.busUtilRead                    1.49                       # Data bus utilization in percentage for reads
system.mem_ctrls1.busUtilWrite                   0.63                       # Data bus utilization in percentage for writes
system.mem_ctrls1.avgRdQLen                      1.02                       # Average read queue length when enqueuing
system.mem_ctrls1.avgWrQLen                     24.81                       # Average write queue length when enqueuing
system.mem_ctrls1.readRowHits                 3853654                       # Number of row buffer hits during reads
system.mem_ctrls1.writeRowHits                  57824                       # Number of row buffer hits during writes
system.mem_ctrls1.readRowHitRate                51.49                       # Row buffer hit rate for reads
system.mem_ctrls1.writeRowHitRate                1.84                       # Row buffer hit rate for writes
system.mem_ctrls1.avgGap                    235734.92                       # Average gap between requests
system.mem_ctrls1.pageHitRate                   36.79                       # Row buffer hit rate, read and write combined
system.mem_ctrls1_0.actEnergy             23959383840                       # Energy for activate commands per rank (pJ)
system.mem_ctrls1_0.preEnergy             12734714520                       # Energy for precharge commands per rank (pJ)
system.mem_ctrls1_0.readEnergy            26739985440                       # Energy for read commands per rank (pJ)
system.mem_ctrls1_0.writeEnergy            8187105420                       # Energy for write commands per rank (pJ)
system.mem_ctrls1_0.refreshEnergy        198751219680.000031                       # Energy for refresh commands per rank (pJ)
system.mem_ctrls1_0.actBackEnergy        159896916990                       # Energy for active background per rank (pJ)
system.mem_ctrls1_0.preBackEnergy          4691221920                       # Energy for precharge background per rank (pJ)
system.mem_ctrls1_0.actPowerDownEnergy   855964530630                       # Energy for active power-down per rank (pJ)
system.mem_ctrls1_0.prePowerDownEnergy    96124179360                       # Energy for precharge power-down per rank (pJ)
system.mem_ctrls1_0.selfRefreshEnergy      6124427985                       # Energy for self refresh per rank (pJ)
system.mem_ctrls1_0.totalEnergy          1393193205375                       # Total energy per rank (pJ)
system.mem_ctrls1_0.averagePower           555.702521                       # Core power per rank (mW)
system.mem_ctrls1_0.totalIdleTime        2144169930287                       # Total Idle time Per DRAM Rank
system.mem_ctrls1_0.memoryStateTime::IDLE   2844145544                       # Time in different power states
system.mem_ctrls1_0.memoryStateTime::REF  84098888186                       # Time in different power states
system.mem_ctrls1_0.memoryStateTime::SREF  16734603262                       # Time in different power states
system.mem_ctrls1_0.memoryStateTime::PRE_PDN 250320268192                       # Time in different power states
system.mem_ctrls1_0.memoryStateTime::ACT 275971493931                       # Time in different power states
system.mem_ctrls1_0.memoryStateTime::ACT_PDN 1877115058833                       # Time in different power states
system.mem_ctrls1_1.actEnergy             24014626020                       # Energy for activate commands per rank (pJ)
system.mem_ctrls1_1.preEnergy             12764068845                       # Energy for precharge commands per rank (pJ)
system.mem_ctrls1_1.readEnergy            26696895540                       # Energy for read commands per rank (pJ)
system.mem_ctrls1_1.writeEnergy            8236945980                       # Energy for write commands per rank (pJ)
system.mem_ctrls1_1.refreshEnergy        198882752640.000031                       # Energy for refresh commands per rank (pJ)
system.mem_ctrls1_1.actBackEnergy        160236404430                       # Energy for active background per rank (pJ)
system.mem_ctrls1_1.preBackEnergy          4720668960                       # Energy for precharge background per rank (pJ)
system.mem_ctrls1_1.actPowerDownEnergy   853333396380                       # Energy for active power-down per rank (pJ)
system.mem_ctrls1_1.prePowerDownEnergy    97773528000                       # Energy for precharge power-down per rank (pJ)
system.mem_ctrls1_1.selfRefreshEnergy      6457832055                       # Energy for self refresh per rank (pJ)
system.mem_ctrls1_1.totalEnergy          1393136895540                       # Total energy per rank (pJ)
system.mem_ctrls1_1.averagePower           555.680079                       # Core power per rank (mW)
system.mem_ctrls1_1.totalIdleTime        2143356918945                       # Total Idle time Per DRAM Rank
system.mem_ctrls1_1.memoryStateTime::IDLE   2935022215                       # Time in different power states
system.mem_ctrls1_1.memoryStateTime::REF  84156376000                       # Time in different power states
system.mem_ctrls1_1.memoryStateTime::SREF  17387685605                       # Time in different power states
system.mem_ctrls1_1.memoryStateTime::PRE_PDN 254615416200                       # Time in different power states
system.mem_ctrls1_1.memoryStateTime::ACT 276635886581                       # Time in different power states
system.mem_ctrls1_1.memoryStateTime::ACT_PDN 1871354071347                       # Time in different power states
system.pwrStateResidencyTicks::UNDEFINED 129460080982680                       # Cumulative time (in ticks) in various power states
system.cpu.branchPred.lookups                       3                       # Number of BP lookups
system.cpu.branchPred.condPredicted                 3                       # Number of conditional branches predicted
system.cpu.branchPred.condIncorrect                 1                       # Number of conditional branches incorrect
system.cpu.branchPred.BTBLookups                    0                       # Number of BTB lookups
system.cpu.branchPred.BTBHits                       0                       # Number of BTB hits
system.cpu.branchPred.BTBCorrect                    0                       # Number of correct BTB predictions (this stat may not work properly.
system.cpu.branchPred.BTBHitPct                   nan                       # BTB Hit Percentage
system.cpu.branchPred.usedRAS                       0                       # Number of times the RAS was used to get a target.
system.cpu.branchPred.RASInCorrect                  0                       # Number of incorrect RAS predictions.
system.cpu.branchPred.indirectLookups               0                       # Number of indirect predictor lookups.
system.cpu.branchPred.indirectHits                  0                       # Number of indirect target hits.
system.cpu.branchPred.indirectMisses                0                       # Number of indirect misses.
system.cpu.branchPredindirectMispredicted            0                       # Number of mispredicted indirect branches.
system.cpu_voltage_domain.voltage                   1                       # Voltage in Volts
system.cpu_clk_domain.clock                       333                       # Clock period in ticks
system.cpu.dtb.fetch_hits                           0                       # ITB hits
system.cpu.dtb.fetch_misses                         0                       # ITB misses
system.cpu.dtb.fetch_acv                            0                       # ITB acv
system.cpu.dtb.fetch_accesses                       0                       # ITB accesses
system.cpu.dtb.read_hits                            2                       # DTB read hits
system.cpu.dtb.read_misses                          0                       # DTB read misses
system.cpu.dtb.read_acv                             0                       # DTB read access violations
system.cpu.dtb.read_accesses                        2                       # DTB read accesses
system.cpu.dtb.write_hits                           0                       # DTB write hits
system.cpu.dtb.write_misses                         0                       # DTB write misses
system.cpu.dtb.write_acv                            0                       # DTB write access violations
system.cpu.dtb.write_accesses                       0                       # DTB write accesses
system.cpu.dtb.data_hits                            2                       # DTB hits
system.cpu.dtb.data_misses                          0                       # DTB misses
system.cpu.dtb.data_acv                             0                       # DTB access violations
system.cpu.dtb.data_accesses                        2                       # DTB accesses
system.cpu.itb.fetch_hits                           3                       # ITB hits
system.cpu.itb.fetch_misses                         0                       # ITB misses
system.cpu.itb.fetch_acv                            0                       # ITB acv
system.cpu.itb.fetch_accesses                       3                       # ITB accesses
system.cpu.itb.read_hits                            0                       # DTB read hits
system.cpu.itb.read_misses                          0                       # DTB read misses
system.cpu.itb.read_acv                             0                       # DTB read access violations
system.cpu.itb.read_accesses                        0                       # DTB read accesses
system.cpu.itb.write_hits                           0                       # DTB write hits
system.cpu.itb.write_misses                         0                       # DTB write misses
system.cpu.itb.write_acv                            0                       # DTB write access violations
system.cpu.itb.write_accesses                       0                       # DTB write accesses
system.cpu.itb.data_hits                            0                       # DTB hits
system.cpu.itb.data_misses                          0                       # DTB misses
system.cpu.itb.data_acv                             0                       # DTB access violations
system.cpu.itb.data_accesses                        0                       # DTB accesses
system.cpu.workload.num_syscalls                    0                       # Number of system calls
system.cpu.pwrStateResidencyTicks::ON    2507084457948                       # Cumulative time (in ticks) in various power states
system.cpu.numCycles                              291                       # number of cpu cycles simulated
system.cpu.numWorkItemsStarted                      0                       # number of work items this cpu started
system.cpu.numWorkItemsCompleted                    0                       # number of work items this cpu completed
system.cpu.fetch.icacheStallCycles                 19                       # Number of cycles fetch is stalled on an Icache miss
system.cpu.fetch.Insts                              9                       # Number of instructions fetch has processed
system.cpu.fetch.Branches                           3                       # Number of branches that fetch encountered
system.cpu.fetch.Cycles                             2                       # Number of cycles fetch has run and was not squashing or blocked
system.cpu.fetch.SquashCycles                       5                       # Number of cycles fetch has spent squashing
system.cpu.fetch.PendingDrainCycles                 3                       # Number of cycles fetch has spent waiting on pipes to drain
system.cpu.fetch.CacheLines                         3                       # Number of cache lines fetched
system.cpu.fetch.IcacheSquashes                     2                       # Number of outstanding Icache misses that were squashed
system.cpu.fetch.rateDist::samples                 26                       # Number of instructions fetched each cycle (Total)
system.cpu.fetch.rateDist::mean              0.346154                       # Number of instructions fetched each cycle (Total)
system.cpu.fetch.rateDist::stdev             1.573336                       # Number of instructions fetched each cycle (Total)
system.cpu.fetch.rateDist::underflows               0      0.00%      0.00% # Number of instructions fetched each cycle (Total)
system.cpu.fetch.rateDist::0                       24     92.31%     92.31% # Number of instructions fetched each cycle (Total)
system.cpu.fetch.rateDist::1                        1      3.85%     96.15% # Number of instructions fetched each cycle (Total)
system.cpu.fetch.rateDist::2                        0      0.00%     96.15% # Number of instructions fetched each cycle (Total)
system.cpu.fetch.rateDist::3                        0      0.00%     96.15% # Number of instructions fetched each cycle (Total)
system.cpu.fetch.rateDist::4                        0      0.00%     96.15% # Number of instructions fetched each cycle (Total)
system.cpu.fetch.rateDist::5                        0      0.00%     96.15% # Number of instructions fetched each cycle (Total)
system.cpu.fetch.rateDist::6                        0      0.00%     96.15% # Number of instructions fetched each cycle (Total)
system.cpu.fetch.rateDist::7                        0      0.00%     96.15% # Number of instructions fetched each cycle (Total)
system.cpu.fetch.rateDist::8                        1      3.85%    100.00% # Number of instructions fetched each cycle (Total)
system.cpu.fetch.rateDist::overflows                0      0.00%    100.00% # Number of instructions fetched each cycle (Total)
system.cpu.fetch.rateDist::min_value                0                       # Number of instructions fetched each cycle (Total)
system.cpu.fetch.rateDist::max_value                8                       # Number of instructions fetched each cycle (Total)
system.cpu.fetch.rateDist::total                   26                       # Number of instructions fetched each cycle (Total)
system.cpu.fetch.branchRate                  0.010309                       # Number of branch fetches per cycle
system.cpu.fetch.rate                        0.030928                       # Number of inst fetches per cycle
system.cpu.decode.IdleCycles                       21                       # Number of cycles decode is idle
[...]
system.switch_cpus_1.iq.int_inst_queue_wakeup_accesses    319775088                       # Number of integer instruction queue wakeup accesses
system.switch_cpus_1.iq.fp_inst_queue_reads     69701942                       # Number of floating instruction queue reads
system.switch_cpus_1.iq.fp_inst_queue_writes    112001702                       # Number of floating instruction queue writes
system.switch_cpus_1.iq.fp_inst_queue_wakeup_accesses     28701266                       # Number of floating instruction queue wakeup accesses
system.switch_cpus_1.iq.int_alu_accesses    350150223                       # Number of integer alu accesses
system.switch_cpus_1.iq.fp_alu_accesses      35033061                       # Number of floating point alu accesses
system.switch_cpus_1.iew.lsq.thread0.forwLoads      9325505                       # Number of loads that had data forwarded from stores
system.switch_cpus_1.iew.lsq.thread0.invAddrLoads            0                       # Number of loads ignored due to an invalid address
system.switch_cpus_1.iew.lsq.thread0.squashedLoads     67921558                       # Number of loads squashed
system.switch_cpus_1.iew.lsq.thread0.ignoredResponses        24357                       # Number of memory responses ignored because the instruction is squashed
system.switch_cpus_1.iew.lsq.thread0.memOrderViolation        11002                       # Number of memory ordering violations
system.switch_cpus_1.iew.lsq.thread0.squashedStores     29369176                       # Number of stores squashed
system.switch_cpus_1.iew.lsq.thread0.invAddrSwpfs            0                       # Number of software prefetches ignored due to an invalid address
system.switch_cpus_1.iew.lsq.thread0.blockedLoads            0                       # Number of blocked loads due to partial load-store forwarding
system.switch_cpus_1.iew.lsq.thread0.rescheduledLoads          501                       # Number of loads that were rescheduled
system.switch_cpus_1.iew.lsq.thread0.cacheBlocked      2452900                       # Number of times an access to memory failed due to the cache being blocked
system.switch_cpus_1.iew.iewIdleCycles              0                       # Number of cycles IEW is idle
system.switch_cpus_1.iew.iewSquashCycles      3789998                       # Number of cycles IEW is squashing
system.switch_cpus_1.iew.iewBlockCycles     153622883                       # Number of cycles IEW is blocking
system.switch_cpus_1.iew.iewUnblockCycles     83913837                       # Number of cycles IEW is unblocking
system.switch_cpus_1.iew.iewDispatchedInsts    486065700                       # Number of instructions dispatched to IQ
system.switch_cpus_1.iew.iewDispSquashedInsts       121756                       # Number of squashed instructions skipped by dispatch
system.switch_cpus_1.iew.iewDispLoadInsts    115648814                       # Number of dispatched load instructions
system.switch_cpus_1.iew.iewDispStoreInsts     58598003                       # Number of dispatched store instructions
system.switch_cpus_1.iew.iewDispNonSpecInsts       529711                       # Number of dispatched non-speculative instructions
system.switch_cpus_1.iew.iewIQFullEvents      1250743                       # Number of times the IQ has become full, causing a stall
system.switch_cpus_1.iew.iewLSQFullEvents     82415224                       # Number of times the LSQ has become full, causing a stall
system.switch_cpus_1.iew.memOrderViolationEvents        11002                       # Number of memory order violations
system.switch_cpus_1.iew.predictedTakenIncorrect       742957                       # Number of branches that were predicted taken incorrectly
system.switch_cpus_1.iew.predictedNotTakenIncorrect      1134389                       # Number of branches that were predicted not taken incorrectly
system.switch_cpus_1.iew.branchMispredicts      1877346                       # Number of branch mispredicts detected at execute
system.switch_cpus_1.iew.iewExecutedInsts    374065514                       # Number of executed instructions
system.switch_cpus_1.iew.iewExecLoadInsts    102116852                       # Number of load instructions executed
system.switch_cpus_1.iew.iewExecSquashedInsts      4192419                       # Number of squashed instructions skipped in execute
system.switch_cpus_1.iew.exec_swp                   0                       # number of swp insts executed
system.switch_cpus_1.iew.exec_nop            23132160                       # number of nop insts executed
system.switch_cpus_1.iew.exec_refs          154269655                       # number of memory reference insts executed
system.switch_cpus_1.iew.exec_branches       72308558                       # Number of branches executed
system.switch_cpus_1.iew.exec_stores         52152803                       # Number of stores executed
system.switch_cpus_1.iew.exec_rate           0.537705                       # Inst execution rate
system.switch_cpus_1.iew.wb_sent            368915354                       # cumulative count of insts sent to commit
system.switch_cpus_1.iew.wb_count           348476354                       # cumulative count of insts written-back
system.switch_cpus_1.iew.wb_producers       176444518                       # num instructions producing a value
system.switch_cpus_1.iew.wb_consumers       258817040                       # num instructions consuming a value
system.switch_cpus_1.iew.wb_rate             0.500921                       # insts written-back per cycle
system.switch_cpus_1.iew.wb_fanout           0.681735                       # average fanout of values written-back
system.switch_cpus_1.commit.commitSquashedInsts    228785204                       # The number of squashed insts skipped by commit
system.switch_cpus_1.commit.commitNonSpecStalls       665598                       # The number of times commit has been forced to stall to communicate backwards
system.switch_cpus_1.commit.branchMispredicts      1436584                       # The number of times a branch was mispredicted
system.switch_cpus_1.commit.committed_per_cycle::samples    662726705                       # Number of insts commited each cycle
system.switch_cpus_1.commit.committed_per_cycle::mean     0.322296                       # Number of insts commited each cycle
system.switch_cpus_1.commit.committed_per_cycle::stdev     1.372012                       # Number of insts commited each cycle
system.switch_cpus_1.commit.committed_per_cycle::underflows            0      0.00%      0.00% # Number of insts commited each cycle
system.switch_cpus_1.commit.committed_per_cycle::0    608463291     91.81%     91.81% # Number of insts commited each cycle
system.switch_cpus_1.commit.committed_per_cycle::1     19931575      3.01%     94.82% # Number of insts commited each cycle
system.switch_cpus_1.commit.committed_per_cycle::2      6011911      0.91%     95.73% # Number of insts commited each cycle
system.switch_cpus_1.commit.committed_per_cycle::3      3746513      0.57%     96.29% # Number of insts commited each cycle
system.switch_cpus_1.commit.committed_per_cycle::4      3305535      0.50%     96.79% # Number of insts commited each cycle
system.switch_cpus_1.commit.committed_per_cycle::5      2550481      0.38%     97.18% # Number of insts commited each cycle
system.switch_cpus_1.commit.committed_per_cycle::6      1910527      0.29%     97.46% # Number of insts commited each cycle
system.switch_cpus_1.commit.committed_per_cycle::7      1493209      0.23%     97.69% # Number of insts commited each cycle
system.switch_cpus_1.commit.committed_per_cycle::8     15313663      2.31%    100.00% # Number of insts commited each cycle
system.switch_cpus_1.commit.committed_per_cycle::overflows            0      0.00%    100.00% # Number of insts commited each cycle
system.switch_cpus_1.commit.committed_per_cycle::min_value            0                       # Number of insts commited each cycle
system.switch_cpus_1.commit.committed_per_cycle::max_value            8                       # Number of insts commited each cycle
system.switch_cpus_1.commit.committed_per_cycle::total    662726705                       # Number of insts commited each cycle
system.switch_cpus_1.commit.committedInsts    213594410                       # Number of instructions committed
system.switch_cpus_1.commit.committedOps    213594410                       # Number of ops (including micro ops) committed
system.switch_cpus_1.commit.swp_count               0                       # Number of s/w prefetches committed
system.switch_cpus_1.commit.refs             76956073                       # Number of memory references committed
system.switch_cpus_1.commit.loads            47727246                       # Number of loads committed
system.switch_cpus_1.commit.membars            332799                       # Number of memory barriers committed
system.switch_cpus_1.commit.branches         42872050                       # Number of branches committed
system.switch_cpus_1.commit.fp_insts         19258208                       # Number of committed floating point instructions.
system.switch_cpus_1.commit.int_insts       185197309                       # Number of committed integer instructions.
system.switch_cpus_1.commit.function_calls      6276853                       # Number of function calls committed.
system.switch_cpus_1.commit.op_class_0::No_OpClass     13768422      6.45%      6.45% # Class of committed instruction
system.switch_cpus_1.commit.op_class_0::IntAlu    110964867     51.95%     58.40% # Class of committed instruction
system.switch_cpus_1.commit.op_class_0::IntMult        87084      0.04%     58.44% # Class of committed instruction
system.switch_cpus_1.commit.op_class_0::IntDiv            0      0.00%     58.44% # Class of committed instruction
system.switch_cpus_1.commit.op_class_0::FloatAdd      6284834      2.94%     61.38% # Class of committed instruction
system.switch_cpus_1.commit.op_class_0::FloatCmp      4706081      2.20%     63.58% # Class of committed instruction
system.switch_cpus_1.commit.op_class_0::FloatCvt       352967      0.17%     63.75% # Class of committed instruction
system.switch_cpus_1.commit.op_class_0::FloatMult        54220      0.03%     63.77% # Class of committed instruction
system.switch_cpus_1.commit.op_class_0::FloatMultAcc            0      0.00%     63.77% # Class of committed instruction
system.switch_cpus_1.commit.op_class_0::FloatDiv        87048      0.04%     63.82% # Class of committed instruction
system.switch_cpus_1.commit.op_class_0::FloatMisc            0      0.00%     63.82% # Class of committed instruction
system.switch_cpus_1.commit.op_class_0::FloatSqrt           15      0.00%     63.82% # Class of committed instruction
system.switch_cpus_1.commit.op_class_0::SimdAdd            0      0.00%     63.82% # Class of committed instruction
system.switch_cpus_1.commit.op_class_0::SimdAddAcc            0      0.00%     63.82% # Class of committed instruction
system.switch_cpus_1.commit.op_class_0::SimdAlu            0      0.00%     63.82% # Class of committed instruction
system.switch_cpus_1.commit.op_class_0::SimdCmp            0      0.00%     63.82% # Class of committed instruction
system.switch_cpus_1.commit.op_class_0::SimdCvt            0      0.00%     63.82% # Class of committed instruction
system.switch_cpus_1.commit.op_class_0::SimdMisc            0      0.00%     63.82% # Class of committed instruction
system.switch_cpus_1.commit.op_class_0::SimdMult            0      0.00%     63.82% # Class of committed instruction
system.switch_cpus_1.commit.op_class_0::SimdMultAcc            0      0.00%     63.82% # Class of committed instruction
system.switch_cpus_1.commit.op_class_0::SimdShift            0      0.00%     63.82% # Class of committed instruction
system.switch_cpus_1.commit.op_class_0::SimdShiftAcc            0      0.00%     63.82% # Class of committed instruction
system.switch_cpus_1.commit.op_class_0::SimdSqrt            0      0.00%     63.82% # Class of committed instruction
system.switch_cpus_1.commit.op_class_0::SimdFloatAdd            0      0.00%     63.82% # Class of committed instruction
system.switch_cpus_1.commit.op_class_0::SimdFloatAlu            0      0.00%     63.82% # Class of committed instruction
system.switch_cpus_1.commit.op_class_0::SimdFloatCmp            0      0.00%     63.82% # Class of committed instruction
system.switch_cpus_1.commit.op_class_0::SimdFloatCvt            0      0.00%     63.82% # Class of committed instruction
system.switch_cpus_1.commit.op_class_0::SimdFloatDiv            0      0.00%     63.82% # Class of committed instruction
system.switch_cpus_1.commit.op_class_0::SimdFloatMisc            0      0.00%     63.82% # Class of committed instruction
system.switch_cpus_1.commit.op_class_0::SimdFloatMult            0      0.00%     63.82% # Class of committed instruction
system.switch_cpus_1.commit.op_class_0::SimdFloatMultAcc            0      0.00%     63.82% # Class of committed instruction
system.switch_cpus_1.commit.op_class_0::SimdFloatSqrt            0      0.00%     63.82% # Class of committed instruction
system.switch_cpus_1.commit.op_class_0::MemRead     41999437     19.66%     83.48% # Class of committed instruction
system.switch_cpus_1.commit.op_class_0::MemWrite     27516392     12.88%     96.36% # Class of committed instruction
system.switch_cpus_1.commit.op_class_0::FloatMemRead      6060608      2.84%     99.20% # Class of committed instruction
system.switch_cpus_1.commit.op_class_0::FloatMemWrite      1712435      0.80%    100.00% # Class of committed instruction
system.switch_cpus_1.commit.op_class_0::IprAccess            0      0.00%    100.00% # Class of committed instruction
system.switch_cpus_1.commit.op_class_0::InstPrefetch            0      0.00%    100.00% # Class of committed instruction
system.switch_cpus_1.commit.op_class_0::total    213594410                       # Class of committed instruction
system.switch_cpus_1.commit.bw_lim_events     15313663                       # number cycles where commit BW limit reached
system.switch_cpus_1.rob.rob_reads         1059311309                       # The number of ROB reads
system.switch_cpus_1.rob.rob_writes         916382120                       # The number of ROB writes
system.switch_cpus_1.timesIdled                 21158                       # Number of times that the entire CPU went into an idle state and unscheduled itself
system.switch_cpus_1.idleCycles               1370172                       # Total number of cycles that the CPU has spent unscheduled due to idling
system.switch_cpus_1.committedInsts         200000000                       # Number of Instructions Simulated
system.switch_cpus_1.committedOps           200000000                       # Number of Ops (including micro ops) Simulated
system.switch_cpus_1.cpi                     3.478355                       # CPI: Cycles Per Instruction
system.switch_cpus_1.cpi_total               3.478355                       # CPI: Total CPI of All Threads
system.switch_cpus_1.ipc                     0.287492                       # IPC: Instructions Per Cycle
system.switch_cpus_1.ipc_total               0.287492                       # IPC: Total IPC of All Threads
system.switch_cpus_1.int_regfile_reads      474398778                       # number of integer regfile reads
system.switch_cpus_1.int_regfile_writes     218483198                       # number of integer regfile writes
system.switch_cpus_1.fp_regfile_reads        26277956                       # number of floating regfile reads
system.switch_cpus_1.fp_regfile_writes       19753696                       # number of floating regfile writes
system.switch_cpus_1.misc_regfile_reads        925602                       # number of misc regfile reads
system.switch_cpus_1.misc_regfile_writes       752604                       # number of misc regfile writes
system.tol3bus.snoop_filter.tot_requests     44293023                       # Total number of requests made to the snoop filter.
system.tol3bus.snoop_filter.hit_single_requests     22146790                       # Number of requests hitting in the snoop filter with a single holder of the requested data.
system.tol3bus.snoop_filter.hit_multi_requests            0                       # Number of requests hitting in the snoop filter with multiple (>1) holders of the requested data.
system.tol3bus.snoop_filter.tot_snoops         297168                       # Total number of snoops made to the snoop filter.
system.tol3bus.snoop_filter.hit_single_snoops       297168                       # Number of snoops hitting in the snoop filter with a single holder of the requested data.
system.tol3bus.snoop_filter.hit_multi_snoops            0                       # Number of snoops hitting in the snoop filter with multiple (>1) holders of the requested data.
system.tol3bus.pwrStateResidencyTicks::UNDEFINED 129460080982680                       # Cumulative time (in ticks) in various power states
system.tol3bus.trans_dist::ReadResp          18859825                       # Transaction distribution
system.tol3bus.trans_dist::WritebackDirty     17116871                       # Transaction distribution
system.tol3bus.trans_dist::CleanEvict        20040282                       # Transaction distribution
system.tol3bus.trans_dist::UpgradeReq            1846                       # Transaction distribution
system.tol3bus.trans_dist::UpgradeResp           1846                       # Transaction distribution
system.tol3bus.trans_dist::ReadExReq          3286408                       # Transaction distribution
system.tol3bus.trans_dist::ReadExResp         3286408                       # Transaction distribution
system.tol3bus.trans_dist::ReadSharedReq     18859825                       # Transaction distribution
system.tol3bus.pkt_count_system.cpu.l2.mem_side::system.l3.cpu_side     66441102                       # Packet count per connected master and slave (bytes)
system.tol3bus.pkt_size_system.cpu.l2.mem_side::system.l3.cpu_side   2109493760                       # Cumulative packet size per connected master and slave (bytes)
system.tol3bus.snoops                        15012209                       # Total snoops (count)
system.tol3bus.snoopTraffic                 403344896                       # Total snoop traffic (bytes)
system.tol3bus.snoop_fanout::samples         37160288                       # Request fanout histogram
system.tol3bus.snoop_fanout::mean            0.007997                       # Request fanout histogram
system.tol3bus.snoop_fanout::stdev           0.089067                       # Request fanout histogram
system.tol3bus.snoop_fanout::underflows             0      0.00%      0.00% # Request fanout histogram
system.tol3bus.snoop_fanout::0               36863120     99.20%     99.20% # Request fanout histogram
system.tol3bus.snoop_fanout::1                 297168      0.80%    100.00% # Request fanout histogram
system.tol3bus.snoop_fanout::overflows              0      0.00%    100.00% # Request fanout histogram
system.tol3bus.snoop_fanout::min_value              0                       # Request fanout histogram
system.tol3bus.snoop_fanout::max_value              1                       # Request fanout histogram
system.tol3bus.snoop_fanout::total           37160288                       # Request fanout histogram
system.tol3bus.reqLayer0.occupancy        18350840790                       # Layer occupancy (ticks)
system.tol3bus.reqLayer0.utilization              0.7                       # Layer utilization (%)
system.tol3bus.respLayer0.occupancy       14750005896                       # Layer occupancy (ticks)
system.tol3bus.respLayer0.utilization             0.6                       # Layer utilization (%)

---------- End Simulation Statistics   ----------
