
---------- Begin Simulation Statistics ----------
sim_seconds                                  1.026842                       # Number of seconds simulated
sim_ticks                                1026842013117                       # Number of ticks simulated
final_tick                               111353060767374                       # Number of ticks from beginning of simulation (restored from checkpoints and never reset)
sim_freq                                 1000000000000                       # Frequency of simulated ticks
host_inst_rate                                 625750                       # Simulator instruction rate (inst/s)
host_op_rate                                   625750                       # Simulator op (including micro ops) rate (op/s)
host_tick_rate                              535455049                       # Simulator tick rate (ticks/s)
host_mem_usage                                2385044                       # Number of bytes of host memory used
host_seconds                                  1917.70                       # Real time elapsed on the host
sim_insts                                  1200000011                       # Number of instructions simulated
sim_ops                                    1200000011                       # Number of ops (including micro ops) simulated
system.voltage_domain.voltage                       1                       # Voltage in Volts
system.clk_domain.clock                          1000                       # Clock period in ticks
system.mem_ctrls0.pwrStateResidencyTicks::UNDEFINED 111353060767374                       # Cumulative time (in ticks) in various power states
system.mem_ctrls0.bytes_read::cpu.inst            128                       # Number of bytes read from this memory
system.mem_ctrls0.bytes_read::cpu.data            192                       # Number of bytes read from this memory
system.mem_ctrls0.bytes_read::switch_cpus.inst        16576                       # Number of bytes read from this memory
system.mem_ctrls0.bytes_read::switch_cpus.data      2451200                       # Number of bytes read from this memory
system.mem_ctrls0.bytes_read::switch_cpus_1.inst         4608                       # Number of bytes read from this memory
system.mem_ctrls0.bytes_read::switch_cpus_1.data      1927360                       # Number of bytes read from this memory
system.mem_ctrls0.bytes_read::total           4400064                       # Number of bytes read from this memory
system.mem_ctrls0.bytes_inst_read::cpu.inst          128                       # Number of instructions bytes read from this memory
system.mem_ctrls0.bytes_inst_read::switch_cpus.inst        16576                       # Number of instructions bytes read from this memory
system.mem_ctrls0.bytes_inst_read::switch_cpus_1.inst         4608                       # Number of instructions bytes read from this memory
system.mem_ctrls0.bytes_inst_read::total        21312                       # Number of instructions bytes read from this memory
system.mem_ctrls0.bytes_written::writebacks      2249344                       # Number of bytes written to this memory
system.mem_ctrls0.bytes_written::total        2249344                       # Number of bytes written to this memory
system.mem_ctrls0.num_reads::cpu.inst               2                       # Number of read requests responded to by this memory
system.mem_ctrls0.num_reads::cpu.data               3                       # Number of read requests responded to by this memory
system.mem_ctrls0.num_reads::switch_cpus.inst          259                       # Number of read requests responded to by this memory
system.mem_ctrls0.num_reads::switch_cpus.data        38300                       # Number of read requests responded to by this memory
system.mem_ctrls0.num_reads::switch_cpus_1.inst           72                       # Number of read requests responded to by this memory
system.mem_ctrls0.num_reads::switch_cpus_1.data        30115                       # Number of read requests responded to by this memory
system.mem_ctrls0.num_reads::total              68751                       # Number of read requests responded to by this memory
system.mem_ctrls0.num_writes::writebacks        35146                       # Number of write requests responded to by this memory
system.mem_ctrls0.num_writes::total             35146                       # Number of write requests responded to by this memory
system.mem_ctrls0.bw_read::cpu.inst               125                       # Total read bandwidth from this memory (bytes/s)
system.mem_ctrls0.bw_read::cpu.data               187                       # Total read bandwidth from this memory (bytes/s)
system.mem_ctrls0.bw_read::switch_cpus.inst        16143                       # Total read bandwidth from this memory (bytes/s)
system.mem_ctrls0.bw_read::switch_cpus.data      2387125                       # Total read bandwidth from this memory (bytes/s)
system.mem_ctrls0.bw_read::switch_cpus_1.inst         4488                       # Total read bandwidth from this memory (bytes/s)
system.mem_ctrls0.bw_read::switch_cpus_1.data      1876978                       # Total read bandwidth from this memory (bytes/s)
system.mem_ctrls0.bw_read::total              4285045                       # Total read bandwidth from this memory (bytes/s)
system.mem_ctrls0.bw_inst_read::cpu.inst          125                       # Instruction read bandwidth from this memory (bytes/s)
system.mem_ctrls0.bw_inst_read::switch_cpus.inst        16143                       # Instruction read bandwidth from this memory (bytes/s)
system.mem_ctrls0.bw_inst_read::switch_cpus_1.inst         4488                       # Instruction read bandwidth from this memory (bytes/s)
system.mem_ctrls0.bw_inst_read::total           20755                       # Instruction read bandwidth from this memory (bytes/s)
system.mem_ctrls0.bw_write::writebacks        2190545                       # Write bandwidth from this memory (bytes/s)
system.mem_ctrls0.bw_write::total             2190545                       # Write bandwidth from this memory (bytes/s)
system.mem_ctrls0.bw_total::writebacks        2190545                       # Total bandwidth to/from this memory (bytes/s)
system.mem_ctrls0.bw_total::cpu.inst              125                       # Total bandwidth to/from this memory (bytes/s)
system.mem_ctrls0.bw_total::cpu.data              187                       # Total bandwidth to/from this memory (bytes/s)
system.mem_ctrls0.bw_total::switch_cpus.inst        16143                       # Total bandwidth to/from this memory (bytes/s)
system.mem_ctrls0.bw_total::switch_cpus.data      2387125                       # Total bandwidth to/from this memory (bytes/s)
system.mem_ctrls0.bw_total::switch_cpus_1.inst         4488                       # Total bandwidth to/from this memory (bytes/s)
system.mem_ctrls0.bw_total::switch_cpus_1.data      1876978                       # Total bandwidth to/from this memory (bytes/s)
system.mem_ctrls0.bw_total::total             6475590                       # Total bandwidth to/from this memory (bytes/s)
system.mem_ctrls0.readReqs                      68751                       # Number of read requests accepted
system.mem_ctrls0.writeReqs                     35146                       # Number of write requests accepted
system.mem_ctrls0.readBursts                    68751                       # Number of DRAM read bursts, including those serviced by the write queue
system.mem_ctrls0.writeBursts                   35146                       # Number of DRAM write bursts, including those merged in the write queue
system.mem_ctrls0.bytesReadDRAM               4389440                       # Total number of bytes read from DRAM
system.mem_ctrls0.bytesReadWrQ                  10624                       # Total number of bytes read from write queue
system.mem_ctrls0.bytesWritten                2248064                       # Total number of bytes written to DRAM
system.mem_ctrls0.bytesReadSys                4400064                       # Total read bytes from the system interface side
system.mem_ctrls0.bytesWrittenSys             2249344                       # Total written bytes from the system interface side
system.mem_ctrls0.servicedByWrQ                   166                       # Number of DRAM read bursts serviced by the write queue
system.mem_ctrls0.mergedWrBursts                    2                       # Number of DRAM write bursts merged with an existing one
system.mem_ctrls0.neitherReadNorWriteReqs            0                       # Number of requests that are neither read nor write
system.mem_ctrls0.perBankRdBursts::0             4246                       # Per bank write bursts
system.mem_ctrls0.perBankRdBursts::1             3819                       # Per bank write bursts
system.mem_ctrls0.perBankRdBursts::2             3951                       # Per bank write bursts
system.mem_ctrls0.perBankRdBursts::3             4886                       # Per bank write bursts
system.mem_ctrls0.perBankRdBursts::4             4834                       # Per bank write bursts
system.mem_ctrls0.perBankRdBursts::5             4247                       # Per bank write bursts
system.mem_ctrls0.perBankRdBursts::6             3931                       # Per bank write bursts
system.mem_ctrls0.perBankRdBursts::7             4411                       # Per bank write bursts
system.mem_ctrls0.perBankRdBursts::8             4340                       # Per bank write bursts
system.mem_ctrls0.perBankRdBursts::9             3966                       # Per bank write bursts
system.mem_ctrls0.perBankRdBursts::10            4285                       # Per bank write bursts
system.mem_ctrls0.perBankRdBursts::11            4513                       # Per bank write bursts
system.mem_ctrls0.perBankRdBursts::12            4659                       # Per bank write bursts
system.mem_ctrls0.perBankRdBursts::13            4214                       # Per bank write bursts
system.mem_ctrls0.perBankRdBursts::14            4016                       # Per bank write bursts
system.mem_ctrls0.perBankRdBursts::15            4267                       # Per bank write bursts
system.mem_ctrls0.perBankWrBursts::0             2169                       # Per bank write bursts
system.mem_ctrls0.perBankWrBursts::1             1731                       # Per bank write bursts
system.mem_ctrls0.perBankWrBursts::2             1947                       # Per bank write bursts
system.mem_ctrls0.perBankWrBursts::3             2701                       # Per bank write bursts
system.mem_ctrls0.perBankWrBursts::4             2790                       # Per bank write bursts
system.mem_ctrls0.perBankWrBursts::5             2240                       # Per bank write bursts
system.mem_ctrls0.perBankWrBursts::6             1810                       # Per bank write bursts
system.mem_ctrls0.perBankWrBursts::7             2282                       # Per bank write bursts
system.mem_ctrls0.perBankWrBursts::8             2232                       # Per bank write bursts
system.mem_ctrls0.perBankWrBursts::9             1932                       # Per bank write bursts
system.mem_ctrls0.perBankWrBursts::10            2162                       # Per bank write bursts
system.mem_ctrls0.perBankWrBursts::11            2530                       # Per bank write bursts
system.mem_ctrls0.perBankWrBursts::12            2478                       # Per bank write bursts
system.mem_ctrls0.perBankWrBursts::13            2034                       # Per bank write bursts
system.mem_ctrls0.perBankWrBursts::14            1888                       # Per bank write bursts
system.mem_ctrls0.perBankWrBursts::15            2200                       # Per bank write bursts
system.mem_ctrls0.numRdRetry                        0                       # Number of times read queue was full causing retry
system.mem_ctrls0.numWrRetry                        0                       # Number of times write queue was full causing retry
system.mem_ctrls0.totGap                 1026819877275                       # Total gap between requests
system.mem_ctrls0.readPktSize::0                    0                       # Read request sizes (log2)
system.mem_ctrls0.readPktSize::1                    0                       # Read request sizes (log2)
system.mem_ctrls0.readPktSize::2                    0                       # Read request sizes (log2)
system.mem_ctrls0.readPktSize::3                    0                       # Read request sizes (log2)
system.mem_ctrls0.readPktSize::4                    0                       # Read request sizes (log2)
system.mem_ctrls0.readPktSize::5                    0                       # Read request sizes (log2)
system.mem_ctrls0.readPktSize::6                68751                       # Read request sizes (log2)
system.mem_ctrls0.writePktSize::0                   0                       # Write request sizes (log2)
system.mem_ctrls0.writePktSize::1                   0                       # Write request sizes (log2)
system.mem_ctrls0.writePktSize::2                   0                       # Write request sizes (log2)
system.mem_ctrls0.writePktSize::3                   0                       # Write request sizes (log2)
system.mem_ctrls0.writePktSize::4                   0                       # Write request sizes (log2)
system.mem_ctrls0.writePktSize::5                   0                       # Write request sizes (log2)
system.mem_ctrls0.writePktSize::6               35146                       # Write request sizes (log2)
system.mem_ctrls0.rdQLenPdf::0                  64290                       # What read queue length does an incoming req see
system.mem_ctrls0.rdQLenPdf::1                   4113                       # What read queue length does an incoming req see
system.mem_ctrls0.rdQLenPdf::2                    182                       # What read queue length does an incoming req see
system.mem_ctrls0.rdQLenPdf::3                      0                       # What read queue length does an incoming req see
system.mem_ctrls0.rdQLenPdf::4                      0                       # What read queue length does an incoming req see
system.mem_ctrls0.rdQLenPdf::5                      0                       # What read queue length does an incoming req see
system.mem_ctrls0.rdQLenPdf::6                      0                       # What read queue length does an incoming req see
system.mem_ctrls0.rdQLenPdf::7                      0                       # What read queue length does an incoming req see
system.mem_ctrls0.rdQLenPdf::8                      0                       # What read queue length does an incoming req see
system.mem_ctrls0.rdQLenPdf::9                      0                       # What read queue length does an incoming req see
system.mem_ctrls0.rdQLenPdf::10                     0                       # What read queue length does an incoming req see
system.mem_ctrls0.rdQLenPdf::11                     0                       # What read queue length does an incoming req see
system.mem_ctrls0.rdQLenPdf::12                     0                       # What read queue length does an incoming req see
system.mem_ctrls0.rdQLenPdf::13                     0                       # What read queue length does an incoming req see
system.mem_ctrls0.rdQLenPdf::14                     0                       # What read queue length does an incoming req see
system.mem_ctrls0.rdQLenPdf::15                     0                       # What read queue length does an incoming req see
system.mem_ctrls0.rdQLenPdf::16                     0                       # What read queue length does an incoming req see
system.mem_ctrls0.rdQLenPdf::17                     0                       # What read queue length does an incoming req see
system.mem_ctrls0.rdQLenPdf::18                     0                       # What read queue length does an incoming req see
system.mem_ctrls0.rdQLenPdf::19                     0                       # What read queue length does an incoming req see
system.mem_ctrls0.rdQLenPdf::20                     0                       # What read queue length does an incoming req see
system.mem_ctrls0.rdQLenPdf::21                     0                       # What read queue length does an incoming req see
system.mem_ctrls0.rdQLenPdf::22                     0                       # What read queue length does an incoming req see
system.mem_ctrls0.rdQLenPdf::23                     0                       # What read queue length does an incoming req see
system.mem_ctrls0.rdQLenPdf::24                     0                       # What read queue length does an incoming req see
system.mem_ctrls0.rdQLenPdf::25                     0                       # What read queue length does an incoming req see
system.mem_ctrls0.rdQLenPdf::26                     0                       # What read queue length does an incoming req see
system.mem_ctrls0.rdQLenPdf::27                     0                       # What read queue length does an incoming req see
system.mem_ctrls0.rdQLenPdf::28                     0                       # What read queue length does an incoming req see
system.mem_ctrls0.rdQLenPdf::29                     0                       # What read queue length does an incoming req see
system.mem_ctrls0.rdQLenPdf::30                     0                       # What read queue length does an incoming req see
system.mem_ctrls0.rdQLenPdf::31                     0                       # What read queue length does an incoming req see
system.mem_ctrls0.wrQLenPdf::0                      2                       # What write queue length does an incoming req see
system.mem_ctrls0.wrQLenPdf::1                      2                       # What write queue length does an incoming req see
system.mem_ctrls0.wrQLenPdf::2                      2                       # What write queue length does an incoming req see
system.mem_ctrls0.wrQLenPdf::3                      2                       # What write queue length does an incoming req see
system.mem_ctrls0.wrQLenPdf::4                      2                       # What write queue length does an incoming req see
system.mem_ctrls0.wrQLenPdf::5                      2                       # What write queue length does an incoming req see
system.mem_ctrls0.wrQLenPdf::6                      2                       # What write queue length does an incoming req see
system.mem_ctrls0.wrQLenPdf::7                      2                       # What write queue length does an incoming req see
system.mem_ctrls0.wrQLenPdf::8                      2                       # What write queue length does an incoming req see
system.mem_ctrls0.wrQLenPdf::9                      2                       # What write queue length does an incoming req see
system.mem_ctrls0.wrQLenPdf::10                     2                       # What write queue length does an incoming req see
system.mem_ctrls0.wrQLenPdf::11                     2                       # What write queue length does an incoming req see
system.mem_ctrls0.wrQLenPdf::12                     2                       # What write queue length does an incoming req see
system.mem_ctrls0.wrQLenPdf::13                     2                       # What write queue length does an incoming req see
system.mem_ctrls0.wrQLenPdf::14                     2                       # What write queue length does an incoming req see
system.mem_ctrls0.wrQLenPdf::15                  1636                       # What write queue length does an incoming req see
system.mem_ctrls0.wrQLenPdf::16                  1730                       # What write queue length does an incoming req see
system.mem_ctrls0.wrQLenPdf::17                  1945                       # What write queue length does an incoming req see
system.mem_ctrls0.wrQLenPdf::18                  1981                       # What write queue length does an incoming req see
system.mem_ctrls0.wrQLenPdf::19                  1984                       # What write queue length does an incoming req see
system.mem_ctrls0.wrQLenPdf::20                  1990                       # What write queue length does an incoming req see
system.mem_ctrls0.wrQLenPdf::21                  1982                       # What write queue length does an incoming req see
system.mem_ctrls0.wrQLenPdf::22                  1986                       # What write queue length does an incoming req see
system.mem_ctrls0.wrQLenPdf::23                  1994                       # What write queue length does an incoming req see
system.mem_ctrls0.wrQLenPdf::24                  2006                       # What write queue length does an incoming req see
system.mem_ctrls0.wrQLenPdf::25                  2015                       # What write queue length does an incoming req see
system.mem_ctrls0.wrQLenPdf::26                  1988                       # What write queue length does an incoming req see
system.mem_ctrls0.wrQLenPdf::27                  1980                       # What write queue length does an incoming req see
system.mem_ctrls0.wrQLenPdf::28                  1978                       # What write queue length does an incoming req see
system.mem_ctrls0.wrQLenPdf::29                  1978                       # What write queue length does an incoming req see
system.mem_ctrls0.wrQLenPdf::30                  2011                       # What write queue length does an incoming req see
system.mem_ctrls0.wrQLenPdf::31                  1957                       # What write queue length does an incoming req see
system.mem_ctrls0.wrQLenPdf::32                  1955                       # What write queue length does an incoming req see
system.mem_ctrls0.wrQLenPdf::33                    12                       # What write queue length does an incoming req see
system.mem_ctrls0.wrQLenPdf::34                     3                       # What write queue length does an incoming req see
system.mem_ctrls0.wrQLenPdf::35                     2                       # What write queue length does an incoming req see
system.mem_ctrls0.wrQLenPdf::36                     1                       # What write queue length does an incoming req see
system.mem_ctrls0.wrQLenPdf::37                     0                       # What write queue length does an incoming req see
system.mem_ctrls0.wrQLenPdf::38                     0                       # What write queue length does an incoming req see
system.mem_ctrls0.wrQLenPdf::39                     0                       # What write queue length does an incoming req see
system.mem_ctrls0.wrQLenPdf::40                     0                       # What write queue length does an incoming req see
system.mem_ctrls0.wrQLenPdf::41                     0                       # What write queue length does an incoming req see
system.mem_ctrls0.wrQLenPdf::42                     0                       # What write queue length does an incoming req see
system.mem_ctrls0.wrQLenPdf::43                     0                       # What write queue length does an incoming req see
system.mem_ctrls0.wrQLenPdf::44                     0                       # What write queue length does an incoming req see
system.mem_ctrls0.wrQLenPdf::45                     0                       # What write queue length does an incoming req see
system.mem_ctrls0.wrQLenPdf::46                     0                       # What write queue length does an incoming req see
system.mem_ctrls0.wrQLenPdf::47                     0                       # What write queue length does an incoming req see
system.mem_ctrls0.wrQLenPdf::48                     0                       # What write queue length does an incoming req see
system.mem_ctrls0.wrQLenPdf::49                     0                       # What write queue length does an incoming req see
system.mem_ctrls0.wrQLenPdf::50                     0                       # What write queue length does an incoming req see
system.mem_ctrls0.wrQLenPdf::51                     0                       # What write queue length does an incoming req see
system.mem_ctrls0.wrQLenPdf::52                     0                       # What write queue length does an incoming req see
system.mem_ctrls0.wrQLenPdf::53                     0                       # What write queue length does an incoming req see
system.mem_ctrls0.wrQLenPdf::54                     0                       # What write queue length does an incoming req see
system.mem_ctrls0.wrQLenPdf::55                     0                       # What write queue length does an incoming req see
system.mem_ctrls0.wrQLenPdf::56                     0                       # What write queue length does an incoming req see
system.mem_ctrls0.wrQLenPdf::57                     0                       # What write queue length does an incoming req see
system.mem_ctrls0.wrQLenPdf::58                     0                       # What write queue length does an incoming req see
system.mem_ctrls0.wrQLenPdf::59                     0                       # What write queue length does an incoming req see
system.mem_ctrls0.wrQLenPdf::60                     0                       # What write queue length does an incoming req see
system.mem_ctrls0.wrQLenPdf::61                     0                       # What write queue length does an incoming req see
system.mem_ctrls0.wrQLenPdf::62                     0                       # What write queue length does an incoming req see
system.mem_ctrls0.wrQLenPdf::63                     0                       # What write queue length does an incoming req see
system.mem_ctrls0.bytesPerActivate::samples        50988                       # Bytes accessed per row activation
system.mem_ctrls0.bytesPerActivate::mean   130.177767                       # Bytes accessed per row activation
system.mem_ctrls0.bytesPerActivate::gmean   107.536709                       # Bytes accessed per row activation
system.mem_ctrls0.bytesPerActivate::stdev   102.558052                       # Bytes accessed per row activation
system.mem_ctrls0.bytesPerActivate::0-127        23726     46.53%     46.53% # Bytes accessed per row activation
system.mem_ctrls0.bytesPerActivate::128-255        23081     45.27%     91.80% # Bytes accessed per row activation
system.mem_ctrls0.bytesPerActivate::256-383         1914      3.75%     95.55% # Bytes accessed per row activation
system.mem_ctrls0.bytesPerActivate::384-511         1155      2.27%     97.82% # Bytes accessed per row activation
system.mem_ctrls0.bytesPerActivate::512-639          675      1.32%     99.14% # Bytes accessed per row activation
system.mem_ctrls0.bytesPerActivate::640-767          301      0.59%     99.73% # Bytes accessed per row activation
system.mem_ctrls0.bytesPerActivate::768-895          107      0.21%     99.94% # Bytes accessed per row activation
system.mem_ctrls0.bytesPerActivate::896-1023           26      0.05%     99.99% # Bytes accessed per row activation
system.mem_ctrls0.bytesPerActivate::1024-1151            3      0.01%    100.00% # Bytes accessed per row activation
system.mem_ctrls0.bytesPerActivate::total        50988                       # Bytes accessed per row activation
system.mem_ctrls0.rdPerTurnAround::samples         1956                       # Reads before turning the bus around for writes
system.mem_ctrls0.rdPerTurnAround::mean     35.063906                       # Reads before turning the bus around for writes
system.mem_ctrls0.rdPerTurnAround::stdev   722.583029                       # Reads before turning the bus around for writes
system.mem_ctrls0.rdPerTurnAround::0-1023         1955     99.95%     99.95% # Reads before turning the bus around for writes
system.mem_ctrls0.rdPerTurnAround::31744-32767            1      0.05%    100.00% # Reads before turning the bus around for writes
system.mem_ctrls0.rdPerTurnAround::total         1956                       # Reads before turning the bus around for writes
system.mem_ctrls0.wrPerTurnAround::samples         1956                       # Writes before turning the bus around for reads
system.mem_ctrls0.wrPerTurnAround::mean     17.958078                       # Writes before turning the bus around for reads
system.mem_ctrls0.wrPerTurnAround::gmean    17.931834                       # Writes before turning the bus around for reads
system.mem_ctrls0.wrPerTurnAround::stdev     0.967651                       # Writes before turning the bus around for reads
system.mem_ctrls0.wrPerTurnAround::16             248     12.68%     12.68% # Writes before turning the bus around for reads
system.mem_ctrls0.wrPerTurnAround::17              65      3.32%     16.00% # Writes before turning the bus around for reads
system.mem_ctrls0.wrPerTurnAround::18            1272     65.03%     81.03% # Writes before turning the bus around for reads
system.mem_ctrls0.wrPerTurnAround::19             286     14.62%     95.65% # Writes before turning the bus around for reads
system.mem_ctrls0.wrPerTurnAround::20              69      3.53%     99.18% # Writes before turning the bus around for reads
system.mem_ctrls0.wrPerTurnAround::21              14      0.72%     99.90% # Writes before turning the bus around for reads
system.mem_ctrls0.wrPerTurnAround::23               1      0.05%     99.95% # Writes before turning the bus around for reads
system.mem_ctrls0.wrPerTurnAround::26               1      0.05%    100.00% # Writes before turning the bus around for reads
system.mem_ctrls0.wrPerTurnAround::total         1956                       # Writes before turning the bus around for reads
system.mem_ctrls0.totQLat                  1360497142                       # Total ticks spent queuing
system.mem_ctrls0.totMemAccLat             2646465892                       # Total ticks spent from burst creation until serviced by the DRAM
system.mem_ctrls0.totBusLat                 342925000                       # Total ticks spent in databus transfers
system.mem_ctrls0.avgQLat                    19836.66                       # Average queueing delay per DRAM burst
system.mem_ctrls0.avgBusLat                   5000.00                       # Average bus latency per DRAM burst
system.mem_ctrls0.avgMemAccLat               38586.66                       # Average memory access latency per DRAM burst
system.mem_ctrls0.avgRdBW                        4.27                       # Average DRAM read bandwidth in MiByte/s
system.mem_ctrls0.avgWrBW                        2.19                       # Average achieved write bandwidth in MiByte/s
system.mem_ctrls0.avgRdBWSys                     4.29                       # Average system read bandwidth in MiByte/s
system.mem_ctrls0.avgWrBWSys                     2.19                       # Average system write bandwidth in MiByte/s
system.mem_ctrls0.peakBW                     12800.00                       # Theoretical peak bandwidth in MiByte/s
system.mem_ctrls0.busUtil                        0.05                       # Data bus utilization in percentage
system.mem_ctrls0.busUtilRead                    0.03                       # Data bus utilization in percentage for reads
system.mem_ctrls0.busUtilWrite                   0.02                       # Data bus utilization in percentage for writes
system.mem_ctrls0.avgRdQLen                      1.00                       # Average read queue length when enqueuing
system.mem_ctrls0.avgWrQLen                      0.81                       # Average write queue length when enqueuing
system.mem_ctrls0.readRowHits                   43428                       # Number of row buffer hits during reads
system.mem_ctrls0.writeRowHits                   9295                       # Number of row buffer hits during writes
system.mem_ctrls0.readRowHitRate                63.32                       # Row buffer hit rate for reads
system.mem_ctrls0.writeRowHitRate               26.45                       # Row buffer hit rate for writes
system.mem_ctrls0.avgGap                   9883056.08                       # Average gap between requests
system.mem_ctrls0.pageHitRate                   50.83                       # Row buffer hit rate, read and write combined
system.mem_ctrls0_0.actEnergy               182348460                       # Energy for activate commands per rank (pJ)
system.mem_ctrls0_0.preEnergy                96920505                       # Energy for precharge commands per rank (pJ)
system.mem_ctrls0_0.readEnergy              245080500                       # Energy for read commands per rank (pJ)
system.mem_ctrls0_0.writeEnergy              92237400                       # Energy for write commands per rank (pJ)
system.mem_ctrls0_0.refreshEnergy        4940476320.000001                       # Energy for refresh commands per rank (pJ)
system.mem_ctrls0_0.actBackEnergy          2336660280                       # Energy for active background per rank (pJ)
system.mem_ctrls0_0.preBackEnergy           137860800                       # Energy for precharge background per rank (pJ)
system.mem_ctrls0_0.actPowerDownEnergy    19034315520                       # Energy for active power-down per rank (pJ)
system.mem_ctrls0_0.prePowerDownEnergy     4918275840                       # Energy for precharge power-down per rank (pJ)
system.mem_ctrls0_0.selfRefreshEnergy    232228708515                       # Energy for self refresh per rank (pJ)
system.mem_ctrls0_0.totalEnergy          264213276630                       # Total energy per rank (pJ)
system.mem_ctrls0_0.averagePower           257.306648                       # Core power per rank (mW)
system.mem_ctrls0_0.totalIdleTime        1021327916174                       # Total Idle time Per DRAM Rank
system.mem_ctrls0_0.memoryStateTime::IDLE    143029995                       # Time in different power states
system.mem_ctrls0_0.memoryStateTime::REF   2092034000                       # Time in different power states
system.mem_ctrls0_0.memoryStateTime::SREF 966807957617                       # Time in different power states
system.mem_ctrls0_0.memoryStateTime::PRE_PDN  12808384983                       # Time in different power states
system.mem_ctrls0_0.memoryStateTime::ACT   3247846834                       # Time in different power states
system.mem_ctrls0_0.memoryStateTime::ACT_PDN  41742759688                       # Time in different power states
system.mem_ctrls0_1.actEnergy               181705860                       # Energy for activate commands per rank (pJ)
system.mem_ctrls0_1.preEnergy                96578955                       # Energy for precharge commands per rank (pJ)
system.mem_ctrls0_1.readEnergy              244616400                       # Energy for read commands per rank (pJ)
system.mem_ctrls0_1.writeEnergy              91120320                       # Energy for write commands per rank (pJ)
system.mem_ctrls0_1.refreshEnergy        4860573120.000001                       # Energy for refresh commands per rank (pJ)
system.mem_ctrls0_1.actBackEnergy          2336163810                       # Energy for active background per rank (pJ)
system.mem_ctrls0_1.preBackEnergy           130584960                       # Energy for precharge background per rank (pJ)
system.mem_ctrls0_1.actPowerDownEnergy    18874608930                       # Energy for active power-down per rank (pJ)
system.mem_ctrls0_1.prePowerDownEnergy     4835682240                       # Energy for precharge power-down per rank (pJ)
system.mem_ctrls0_1.selfRefreshEnergy    232336699770                       # Energy for self refresh per rank (pJ)
system.mem_ctrls0_1.totalEnergy          263989127595                       # Total energy per rank (pJ)
system.mem_ctrls0_1.averagePower           257.088359                       # Core power per rank (mW)
system.mem_ctrls0_1.totalIdleTime        1021351458754                       # Total Idle time Per DRAM Rank
system.mem_ctrls0_1.memoryStateTime::IDLE    126966037                       # Time in different power states
system.mem_ctrls0_1.memoryStateTime::REF   2057922000                       # Time in different power states
system.mem_ctrls0_1.memoryStateTime::SREF 967392405367                       # Time in different power states
system.mem_ctrls0_1.memoryStateTime::PRE_PDN  12593773405                       # Time in different power states
system.mem_ctrls0_1.memoryStateTime::ACT   3279026705                       # Time in different power states
system.mem_ctrls0_1.memoryStateTime::ACT_PDN  41391919603                       # Time in different power states
system.mem_ctrls1.pwrStateResidencyTicks::UNDEFINED 111353060767374                       # Cumulative time (in ticks) in various power states
system.mem_ctrls1.bytes_read::cpu.inst             64                       # Number of bytes read from this memory
system.mem_ctrls1.bytes_read::cpu.data             64                       # Number of bytes read from this memory
system.mem_ctrls1.bytes_read::switch_cpus.inst        16448                       # Number of bytes read from this memory
system.mem_ctrls1.bytes_read::switch_cpus.data      2451072                       # Number of bytes read from this memory
system.mem_ctrls1.bytes_read::switch_cpus_1.inst         4032                       # Number of bytes read from this memory
system.mem_ctrls1.bytes_read::switch_cpus_1.data      1942592                       # Number of bytes read from this memory
system.mem_ctrls1.bytes_read::total           4414272                       # Number of bytes read from this memory
system.mem_ctrls1.bytes_inst_read::cpu.inst           64                       # Number of instructions bytes read from this memory
system.mem_ctrls1.bytes_inst_read::switch_cpus.inst        16448                       # Number of instructions bytes read from this memory
system.mem_ctrls1.bytes_inst_read::switch_cpus_1.inst         4032                       # Number of instructions bytes read from this memory
system.mem_ctrls1.bytes_inst_read::total        20544                       # Number of instructions bytes read from this memory
system.mem_ctrls1.bytes_written::writebacks      2263360                       # Number of bytes written to this memory
system.mem_ctrls1.bytes_written::total        2263360                       # Number of bytes written to this memory
system.mem_ctrls1.num_reads::cpu.inst               1                       # Number of read requests responded to by this memory
system.mem_ctrls1.num_reads::cpu.data               1                       # Number of read requests responded to by this memory
system.mem_ctrls1.num_reads::switch_cpus.inst          257                       # Number of read requests responded to by this memory
system.mem_ctrls1.num_reads::switch_cpus.data        38298                       # Number of read requests responded to by this memory
system.mem_ctrls1.num_reads::switch_cpus_1.inst           63                       # Number of read requests responded to by this memory
system.mem_ctrls1.num_reads::switch_cpus_1.data        30353                       # Number of read requests responded to by this memory
system.mem_ctrls1.num_reads::total              68973                       # Number of read requests responded to by this memory
system.mem_ctrls1.num_writes::writebacks        35365                       # Number of write requests responded to by this memory
system.mem_ctrls1.num_writes::total             35365                       # Number of write requests responded to by this memory
system.mem_ctrls1.bw_read::cpu.inst                62                       # Total read bandwidth from this memory (bytes/s)
system.mem_ctrls1.bw_read::cpu.data                62                       # Total read bandwidth from this memory (bytes/s)
system.mem_ctrls1.bw_read::switch_cpus.inst        16018                       # Total read bandwidth from this memory (bytes/s)
system.mem_ctrls1.bw_read::switch_cpus.data      2387000                       # Total read bandwidth from this memory (bytes/s)
system.mem_ctrls1.bw_read::switch_cpus_1.inst         3927                       # Total read bandwidth from this memory (bytes/s)
system.mem_ctrls1.bw_read::switch_cpus_1.data      1891812                       # Total read bandwidth from this memory (bytes/s)
system.mem_ctrls1.bw_read::total              4298881                       # Total read bandwidth from this memory (bytes/s)
system.mem_ctrls1.bw_inst_read::cpu.inst           62                       # Instruction read bandwidth from this memory (bytes/s)
system.mem_ctrls1.bw_inst_read::switch_cpus.inst        16018                       # Instruction read bandwidth from this memory (bytes/s)
system.mem_ctrls1.bw_inst_read::switch_cpus_1.inst         3927                       # Instruction read bandwidth from this memory (bytes/s)
system.mem_ctrls1.bw_inst_read::total           20007                       # Instruction read bandwidth from this memory (bytes/s)
system.mem_ctrls1.bw_write::writebacks        2204195                       # Write bandwidth from this memory (bytes/s)
system.mem_ctrls1.bw_write::total             2204195                       # Write bandwidth from this memory (bytes/s)
system.mem_ctrls1.bw_total::writebacks        2204195                       # Total bandwidth to/from this memory (bytes/s)
system.mem_ctrls1.bw_total::cpu.inst               62                       # Total bandwidth to/from this memory (bytes/s)
system.mem_ctrls1.bw_total::cpu.data               62                       # Total bandwidth to/from this memory (bytes/s)
system.mem_ctrls1.bw_total::switch_cpus.inst        16018                       # Total bandwidth to/from this memory (bytes/s)
system.mem_ctrls1.bw_total::switch_cpus.data      2387000                       # Total bandwidth to/from this memory (bytes/s)
system.mem_ctrls1.bw_total::switch_cpus_1.inst         3927                       # Total bandwidth to/from this memory (bytes/s)
system.mem_ctrls1.bw_total::switch_cpus_1.data      1891812                       # Total bandwidth to/from this memory (bytes/s)
system.mem_ctrls1.bw_total::total             6503076                       # Total bandwidth to/from this memory (bytes/s)
system.mem_ctrls1.readReqs                      68973                       # Number of read requests accepted
system.mem_ctrls1.writeReqs                     35365                       # Number of write requests accepted
system.mem_ctrls1.readBursts                    68973                       # Number of DRAM read bursts, including those serviced by the write queue
system.mem_ctrls1.writeBursts                   35365                       # Number of DRAM write bursts, including those merged in the write queue
system.mem_ctrls1.bytesReadDRAM               4404544                       # Total number of bytes read from DRAM
system.mem_ctrls1.bytesReadWrQ                   9728                       # Total number of bytes read from write queue
system.mem_ctrls1.bytesWritten                2262208                       # Total number of bytes written to DRAM
system.mem_ctrls1.bytesReadSys                4414272                       # Total read bytes from the system interface side
system.mem_ctrls1.bytesWrittenSys             2263360                       # Total written bytes from the system interface side
system.mem_ctrls1.servicedByWrQ                   152                       # Number of DRAM read bursts serviced by the write queue
system.mem_ctrls1.mergedWrBursts                    2                       # Number of DRAM write bursts merged with an existing one
system.mem_ctrls1.neitherReadNorWriteReqs            0                       # Number of requests that are neither read nor write
system.mem_ctrls1.perBankRdBursts::0             4302                       # Per bank write bursts
system.mem_ctrls1.perBankRdBursts::1             3798                       # Per bank write bursts
system.mem_ctrls1.perBankRdBursts::2             4010                       # Per bank write bursts
system.mem_ctrls1.perBankRdBursts::3             4900                       # Per bank write bursts
system.mem_ctrls1.perBankRdBursts::4             4834                       # Per bank write bursts
system.mem_ctrls1.perBankRdBursts::5             4243                       # Per bank write bursts
system.mem_ctrls1.perBankRdBursts::6             3957                       # Per bank write bursts
system.mem_ctrls1.perBankRdBursts::7             4449                       # Per bank write bursts
system.mem_ctrls1.perBankRdBursts::8             4348                       # Per bank write bursts
system.mem_ctrls1.perBankRdBursts::9             3953                       # Per bank write bursts
system.mem_ctrls1.perBankRdBursts::10            4309                       # Per bank write bursts
system.mem_ctrls1.perBankRdBursts::11            4496                       # Per bank write bursts
system.mem_ctrls1.perBankRdBursts::12            4723                       # Per bank write bursts
system.mem_ctrls1.perBankRdBursts::13            4200                       # Per bank write bursts
system.mem_ctrls1.perBankRdBursts::14            4065                       # Per bank write bursts
system.mem_ctrls1.perBankRdBursts::15            4234                       # Per bank write bursts
system.mem_ctrls1.perBankWrBursts::0             2239                       # Per bank write bursts
system.mem_ctrls1.perBankWrBursts::1             1700                       # Per bank write bursts
system.mem_ctrls1.perBankWrBursts::2             2009                       # Per bank write bursts
system.mem_ctrls1.perBankWrBursts::3             2711                       # Per bank write bursts
system.mem_ctrls1.perBankWrBursts::4             2850                       # Per bank write bursts
system.mem_ctrls1.perBankWrBursts::5             2273                       # Per bank write bursts
system.mem_ctrls1.perBankWrBursts::6             1831                       # Per bank write bursts
system.mem_ctrls1.perBankWrBursts::7             2306                       # Per bank write bursts
system.mem_ctrls1.perBankWrBursts::8             2204                       # Per bank write bursts
system.mem_ctrls1.perBankWrBursts::9             1927                       # Per bank write bursts
system.mem_ctrls1.perBankWrBursts::10            2167                       # Per bank write bursts
system.mem_ctrls1.perBankWrBursts::11            2464                       # Per bank write bursts
system.mem_ctrls1.perBankWrBursts::12            2535                       # Per bank write bursts
system.mem_ctrls1.perBankWrBursts::13            1997                       # Per bank write bursts
system.mem_ctrls1.perBankWrBursts::14            1954                       # Per bank write bursts
system.mem_ctrls1.perBankWrBursts::15            2180                       # Per bank write bursts
system.mem_ctrls1.numRdRetry                        0                       # Number of times read queue was full causing retry
system.mem_ctrls1.numWrRetry                        0                       # Number of times write queue was full causing retry
system.mem_ctrls1.totGap                 1026841410054                       # Total gap between requests
system.mem_ctrls1.readPktSize::0                    0                       # Read request sizes (log2)
system.mem_ctrls1.readPktSize::1                    0                       # Read request sizes (log2)
system.mem_ctrls1.readPktSize::2                    0                       # Read request sizes (log2)
system.mem_ctrls1.readPktSize::3                    0                       # Read request sizes (log2)
system.mem_ctrls1.readPktSize::4                    0                       # Read request sizes (log2)
system.mem_ctrls1.readPktSize::5                    0                       # Read request sizes (log2)
system.mem_ctrls1.readPktSize::6                68973                       # Read request sizes (log2)
system.mem_ctrls1.writePktSize::0                   0                       # Write request sizes (log2)
system.mem_ctrls1.writePktSize::1                   0                       # Write request sizes (log2)
system.mem_ctrls1.writePktSize::2                   0                       # Write request sizes (log2)
system.mem_ctrls1.writePktSize::3                   0                       # Write request sizes (log2)
system.mem_ctrls1.writePktSize::4                   0                       # Write request sizes (log2)
system.mem_ctrls1.writePktSize::5                   0                       # Write request sizes (log2)
system.mem_ctrls1.writePktSize::6               35365                       # Write request sizes (log2)
system.mem_ctrls1.rdQLenPdf::0                  64370                       # What read queue length does an incoming req see
system.mem_ctrls1.rdQLenPdf::1                   4257                       # What read queue length does an incoming req see
system.mem_ctrls1.rdQLenPdf::2                    194                       # What read queue length does an incoming req see
system.mem_ctrls1.rdQLenPdf::3                      0                       # What read queue length does an incoming req see
system.mem_ctrls1.rdQLenPdf::4                      0                       # What read queue length does an incoming req see
system.mem_ctrls1.rdQLenPdf::5                      0                       # What read queue length does an incoming req see
system.mem_ctrls1.rdQLenPdf::6                      0                       # What read queue length does an incoming req see
system.mem_ctrls1.rdQLenPdf::7                      0                       # What read queue length does an incoming req see
system.mem_ctrls1.rdQLenPdf::8                      0                       # What read queue length does an incoming req see
system.mem_ctrls1.rdQLenPdf::9                      0                       # What read queue length does an incoming req see
system.mem_ctrls1.rdQLenPdf::10                     0                       # What read queue length does an incoming req see
system.mem_ctrls1.rdQLenPdf::11                     0                       # What read queue length does an incoming req see
system.mem_ctrls1.rdQLenPdf::12                     0                       # What read queue length does an incoming req see
system.mem_ctrls1.rdQLenPdf::13                     0                       # What read queue length does an incoming req see
system.mem_ctrls1.rdQLenPdf::14                     0                       # What read queue length does an incoming req see
system.mem_ctrls1.rdQLenPdf::15                     0                       # What read queue length does an incoming req see
system.mem_ctrls1.rdQLenPdf::16                     0                       # What read queue length does an incoming req see
system.mem_ctrls1.rdQLenPdf::17                     0                       # What read queue length does an incoming req see
system.mem_ctrls1.rdQLenPdf::18                     0                       # What read queue length does an incoming req see
system.mem_ctrls1.rdQLenPdf::19                     0                       # What read queue length does an incoming req see
system.mem_ctrls1.rdQLenPdf::20                     0                       # What read queue length does an incoming req see
system.mem_ctrls1.rdQLenPdf::21                     0                       # What read queue length does an incoming req see
system.mem_ctrls1.rdQLenPdf::22                     0                       # What read queue length does an incoming req see
system.mem_ctrls1.rdQLenPdf::23                     0                       # What read queue length does an incoming req see
system.mem_ctrls1.rdQLenPdf::24                     0                       # What read queue length does an incoming req see
system.mem_ctrls1.rdQLenPdf::25                     0                       # What read queue length does an incoming req see
system.mem_ctrls1.rdQLenPdf::26                     0                       # What read queue length does an incoming req see
system.mem_ctrls1.rdQLenPdf::27                     0                       # What read queue length does an incoming req see
system.mem_ctrls1.rdQLenPdf::28                     0                       # What read queue length does an incoming req see
system.mem_ctrls1.rdQLenPdf::29                     0                       # What read queue length does an incoming req see
system.mem_ctrls1.rdQLenPdf::30                     0                       # What read queue length does an incoming req see
system.mem_ctrls1.rdQLenPdf::31                     0                       # What read queue length does an incoming req see
system.mem_ctrls1.wrQLenPdf::0                      2                       # What write queue length does an incoming req see
system.mem_ctrls1.wrQLenPdf::1                      2                       # What write queue length does an incoming req see
system.mem_ctrls1.wrQLenPdf::2                      2                       # What write queue length does an incoming req see
system.mem_ctrls1.wrQLenPdf::3                      2                       # What write queue length does an incoming req see
system.mem_ctrls1.wrQLenPdf::4                      2                       # What write queue length does an incoming req see
system.mem_ctrls1.wrQLenPdf::5                      2                       # What write queue length does an incoming req see
system.mem_ctrls1.wrQLenPdf::6                      2                       # What write queue length does an incoming req see
system.mem_ctrls1.wrQLenPdf::7                      2                       # What write queue length does an incoming req see
system.mem_ctrls1.wrQLenPdf::8                      2                       # What write queue length does an incoming req see
system.mem_ctrls1.wrQLenPdf::9                      2                       # What write queue length does an incoming req see
system.mem_ctrls1.wrQLenPdf::10                     2                       # What write queue length does an incoming req see
system.mem_ctrls1.wrQLenPdf::11                     2                       # What write queue length does an incoming req see
system.mem_ctrls1.wrQLenPdf::12                     2                       # What write queue length does an incoming req see
system.mem_ctrls1.wrQLenPdf::13                     2                       # What write queue length does an incoming req see
system.mem_ctrls1.wrQLenPdf::14                     2                       # What write queue length does an incoming req see
system.mem_ctrls1.wrQLenPdf::15                  1648                       # What write queue length does an incoming req see
system.mem_ctrls1.wrQLenPdf::16                  1755                       # What write queue length does an incoming req see
system.mem_ctrls1.wrQLenPdf::17                  1951                       # What write queue length does an incoming req see
system.mem_ctrls1.wrQLenPdf::18                  2005                       # What write queue length does an incoming req see
system.mem_ctrls1.wrQLenPdf::19                  1994                       # What write queue length does an incoming req see
system.mem_ctrls1.wrQLenPdf::20                  2002                       # What write queue length does an incoming req see
system.mem_ctrls1.wrQLenPdf::21                  1990                       # What write queue length does an incoming req see
system.mem_ctrls1.wrQLenPdf::22                  2004                       # What write queue length does an incoming req see
system.mem_ctrls1.wrQLenPdf::23                  2007                       # What write queue length does an incoming req see
system.mem_ctrls1.wrQLenPdf::24                  2015                       # What write queue length does an incoming req see
system.mem_ctrls1.wrQLenPdf::25                  2026                       # What write queue length does an incoming req see
system.mem_ctrls1.wrQLenPdf::26                  1995                       # What write queue length does an incoming req see
system.mem_ctrls1.wrQLenPdf::27                  1985                       # What write queue length does an incoming req see
system.mem_ctrls1.wrQLenPdf::28                  1982                       # What write queue length does an incoming req see
system.mem_ctrls1.wrQLenPdf::29                  1991                       # What write queue length does an incoming req see
system.mem_ctrls1.wrQLenPdf::30                  2030                       # What write queue length does an incoming req see
system.mem_ctrls1.wrQLenPdf::31                  1969                       # What write queue length does an incoming req see
system.mem_ctrls1.wrQLenPdf::32                  1968                       # What write queue length does an incoming req see
system.mem_ctrls1.wrQLenPdf::33                    11                       # What write queue length does an incoming req see
system.mem_ctrls1.wrQLenPdf::34                     4                       # What write queue length does an incoming req see
system.mem_ctrls1.wrQLenPdf::35                     1                       # What write queue length does an incoming req see
system.mem_ctrls1.wrQLenPdf::36                     0                       # What write queue length does an incoming req see
system.mem_ctrls1.wrQLenPdf::37                     0                       # What write queue length does an incoming req see
system.mem_ctrls1.wrQLenPdf::38                     0                       # What write queue length does an incoming req see
system.mem_ctrls1.wrQLenPdf::39                     0                       # What write queue length does an incoming req see
system.mem_ctrls1.wrQLenPdf::40                     0                       # What write queue length does an incoming req see
system.mem_ctrls1.wrQLenPdf::41                     0                       # What write queue length does an incoming req see
system.mem_ctrls1.wrQLenPdf::42                     0                       # What write queue length does an incoming req see
system.mem_ctrls1.wrQLenPdf::43                     0                       # What write queue length does an incoming req see
system.mem_ctrls1.wrQLenPdf::44                     0                       # What write queue length does an incoming req see
system.mem_ctrls1.wrQLenPdf::45                     0                       # What write queue length does an incoming req see
system.mem_ctrls1.wrQLenPdf::46                     0                       # What write queue length does an incoming req see
system.mem_ctrls1.wrQLenPdf::47                     0                       # What write queue length does an incoming req see
system.mem_ctrls1.wrQLenPdf::48                     0                       # What write queue length does an incoming req see
system.mem_ctrls1.wrQLenPdf::49                     0                       # What write queue length does an incoming req see
system.mem_ctrls1.wrQLenPdf::50                     0                       # What write queue length does an incoming req see
system.mem_ctrls1.wrQLenPdf::51                     0                       # What write queue length does an incoming req see
system.mem_ctrls1.wrQLenPdf::52                     0                       # What write queue length does an incoming req see
system.mem_ctrls1.wrQLenPdf::53                     0                       # What write queue length does an incoming req see
system.mem_ctrls1.wrQLenPdf::54                     0                       # What write queue length does an incoming req see
system.mem_ctrls1.wrQLenPdf::55                     0                       # What write queue length does an incoming req see
system.mem_ctrls1.wrQLenPdf::56                     0                       # What write queue length does an incoming req see
system.mem_ctrls1.wrQLenPdf::57                     0                       # What write queue length does an incoming req see
system.mem_ctrls1.wrQLenPdf::58                     0                       # What write queue length does an incoming req see
system.mem_ctrls1.wrQLenPdf::59                     0                       # What write queue length does an incoming req see
system.mem_ctrls1.wrQLenPdf::60                     0                       # What write queue length does an incoming req see
system.mem_ctrls1.wrQLenPdf::61                     0                       # What write queue length does an incoming req see
system.mem_ctrls1.wrQLenPdf::62                     0                       # What write queue length does an incoming req see
system.mem_ctrls1.wrQLenPdf::63                     0                       # What write queue length does an incoming req see
system.mem_ctrls1.bytesPerActivate::samples        51194                       # Bytes accessed per row activation
system.mem_ctrls1.bytesPerActivate::mean   130.216510                       # Bytes accessed per row activation
system.mem_ctrls1.bytesPerActivate::gmean   107.531966                       # Bytes accessed per row activation
system.mem_ctrls1.bytesPerActivate::stdev   102.906440                       # Bytes accessed per row activation
system.mem_ctrls1.bytesPerActivate::0-127        23793     46.48%     46.48% # Bytes accessed per row activation
system.mem_ctrls1.bytesPerActivate::128-255        23215     45.35%     91.82% # Bytes accessed per row activation
system.mem_ctrls1.bytesPerActivate::256-383         1902      3.72%     95.54% # Bytes accessed per row activation
system.mem_ctrls1.bytesPerActivate::384-511         1108      2.16%     97.70% # Bytes accessed per row activation
system.mem_ctrls1.bytesPerActivate::512-639          711      1.39%     99.09% # Bytes accessed per row activation
system.mem_ctrls1.bytesPerActivate::640-767          347      0.68%     99.77% # Bytes accessed per row activation
system.mem_ctrls1.bytesPerActivate::768-895           90      0.18%     99.95% # Bytes accessed per row activation
system.mem_ctrls1.bytesPerActivate::896-1023           23      0.04%     99.99% # Bytes accessed per row activation
system.mem_ctrls1.bytesPerActivate::1024-1151            5      0.01%    100.00% # Bytes accessed per row activation
system.mem_ctrls1.bytesPerActivate::total        51194                       # Bytes accessed per row activation
system.mem_ctrls1.rdPerTurnAround::samples         1969                       # Reads before turning the bus around for writes
system.mem_ctrls1.rdPerTurnAround::mean     34.952260                       # Reads before turning the bus around for writes
system.mem_ctrls1.rdPerTurnAround::stdev   719.807294                       # Reads before turning the bus around for writes
system.mem_ctrls1.rdPerTurnAround::0-1023         1968     99.95%     99.95% # Reads before turning the bus around for writes
system.mem_ctrls1.rdPerTurnAround::31744-32767            1      0.05%    100.00% # Reads before turning the bus around for writes
system.mem_ctrls1.rdPerTurnAround::total         1969                       # Reads before turning the bus around for writes
system.mem_ctrls1.wrPerTurnAround::samples         1969                       # Writes before turning the bus around for reads
system.mem_ctrls1.wrPerTurnAround::mean     17.951752                       # Writes before turning the bus around for reads
system.mem_ctrls1.wrPerTurnAround::gmean    17.927619                       # Writes before turning the bus around for reads
system.mem_ctrls1.wrPerTurnAround::stdev     0.922951                       # Writes before turning the bus around for reads
system.mem_ctrls1.wrPerTurnAround::16             240     12.19%     12.19% # Writes before turning the bus around for reads
system.mem_ctrls1.wrPerTurnAround::17              69      3.50%     15.69% # Writes before turning the bus around for reads
system.mem_ctrls1.wrPerTurnAround::18            1285     65.26%     80.95% # Writes before turning the bus around for reads
system.mem_ctrls1.wrPerTurnAround::19             312     15.85%     96.80% # Writes before turning the bus around for reads
system.mem_ctrls1.wrPerTurnAround::20              51      2.59%     99.39% # Writes before turning the bus around for reads
system.mem_ctrls1.wrPerTurnAround::21               8      0.41%     99.80% # Writes before turning the bus around for reads
system.mem_ctrls1.wrPerTurnAround::22               4      0.20%    100.00% # Writes before turning the bus around for reads
system.mem_ctrls1.wrPerTurnAround::total         1969                       # Writes before turning the bus around for reads
system.mem_ctrls1.totQLat                  1385355825                       # Total ticks spent queuing
system.mem_ctrls1.totMemAccLat             2675749575                       # Total ticks spent from burst creation until serviced by the DRAM
system.mem_ctrls1.totBusLat                 344105000                       # Total ticks spent in databus transfers
system.mem_ctrls1.avgQLat                    20129.84                       # Average queueing delay per DRAM burst
system.mem_ctrls1.avgBusLat                   5000.00                       # Average bus latency per DRAM burst
system.mem_ctrls1.avgMemAccLat               38879.84                       # Average memory access latency per DRAM burst
system.mem_ctrls1.avgRdBW                        4.29                       # Average DRAM read bandwidth in MiByte/s
system.mem_ctrls1.avgWrBW                        2.20                       # Average achieved write bandwidth in MiByte/s
system.mem_ctrls1.avgRdBWSys                     4.30                       # Average system read bandwidth in MiByte/s
system.mem_ctrls1.avgWrBWSys                     2.20                       # Average system write bandwidth in MiByte/s
system.mem_ctrls1.peakBW                     12800.00                       # Theoretical peak bandwidth in MiByte/s
system.mem_ctrls1.busUtil                        0.05                       # Data bus utilization in percentage
system.mem_ctrls1.busUtilRead                    0.03                       # Data bus utilization in percentage for reads
system.mem_ctrls1.busUtilWrite                   0.02                       # Data bus utilization in percentage for writes
system.mem_ctrls1.avgRdQLen                      1.00                       # Average read queue length when enqueuing
system.mem_ctrls1.avgWrQLen                      0.83                       # Average write queue length when enqueuing
system.mem_ctrls1.readRowHits                   43687                       # Number of row buffer hits during reads
system.mem_ctrls1.writeRowHits                   9281                       # Number of row buffer hits during writes
system.mem_ctrls1.readRowHitRate                63.48                       # Row buffer hit rate for reads
system.mem_ctrls1.writeRowHitRate               26.24                       # Row buffer hit rate for writes
system.mem_ctrls1.avgGap                   9841490.25                       # Average gap between requests
system.mem_ctrls1.pageHitRate                   50.84                       # Row buffer hit rate, read and write combined
system.mem_ctrls1_0.actEnergy               183448020                       # Energy for activate commands per rank (pJ)
system.mem_ctrls1_0.preEnergy                97493550                       # Energy for precharge commands per rank (pJ)
system.mem_ctrls1_0.readEnergy              246280020                       # Energy for read commands per rank (pJ)
system.mem_ctrls1_0.writeEnergy              93537180                       # Energy for write commands per rank (pJ)
system.mem_ctrls1_0.refreshEnergy        4932486000.000001                       # Energy for refresh commands per rank (pJ)
system.mem_ctrls1_0.actBackEnergy          2339767920                       # Energy for active background per rank (pJ)
system.mem_ctrls1_0.preBackEnergy           137111520                       # Energy for precharge background per rank (pJ)
system.mem_ctrls1_0.actPowerDownEnergy    19236133710                       # Energy for active power-down per rank (pJ)
system.mem_ctrls1_0.prePowerDownEnergy     4748614560                       # Energy for precharge power-down per rank (pJ)
system.mem_ctrls1_0.selfRefreshEnergy    232219598850                       # Energy for self refresh per rank (pJ)
system.mem_ctrls1_0.totalEnergy          264234951960                       # Total energy per rank (pJ)
system.mem_ctrls1_0.averagePower           257.327757                       # Core power per rank (mW)
system.mem_ctrls1_0.totalIdleTime        1021352580942                       # Total Idle time Per DRAM Rank
system.mem_ctrls1_0.memoryStateTime::IDLE    141037712                       # Time in different power states
system.mem_ctrls1_0.memoryStateTime::REF   2088558000                       # Time in different power states
system.mem_ctrls1_0.memoryStateTime::SREF 966802125126                       # Time in different power states
system.mem_ctrls1_0.memoryStateTime::PRE_PDN  12367115295                       # Time in different power states
system.mem_ctrls1_0.memoryStateTime::ACT   3259836463                       # Time in different power states
system.mem_ctrls1_0.memoryStateTime::ACT_PDN  42183340521                       # Time in different power states
system.mem_ctrls1_1.actEnergy               182119980                       # Energy for activate commands per rank (pJ)
system.mem_ctrls1_1.preEnergy                96787680                       # Energy for precharge commands per rank (pJ)
system.mem_ctrls1_1.readEnergy              245101920                       # Energy for read commands per rank (pJ)
system.mem_ctrls1_1.writeEnergy              90974160                       # Energy for write commands per rank (pJ)
system.mem_ctrls1_1.refreshEnergy        4884544080.000001                       # Energy for refresh commands per rank (pJ)
system.mem_ctrls1_1.actBackEnergy          2360829420                       # Energy for active background per rank (pJ)
system.mem_ctrls1_1.preBackEnergy           133909440                       # Energy for precharge background per rank (pJ)
system.mem_ctrls1_1.actPowerDownEnergy    18889313790                       # Energy for active power-down per rank (pJ)
system.mem_ctrls1_1.prePowerDownEnergy     4881971520                       # Energy for precharge power-down per rank (pJ)
system.mem_ctrls1_1.selfRefreshEnergy    232292119785                       # Energy for self refresh per rank (pJ)
system.mem_ctrls1_1.totalEnergy          264058203225                       # Total energy per rank (pJ)
system.mem_ctrls1_1.averagePower           257.155629                       # Core power per rank (mW)
system.mem_ctrls1_1.totalIdleTime        1021315071804                       # Total Idle time Per DRAM Rank
system.mem_ctrls1_1.memoryStateTime::IDLE    134268379                       # Time in different power states
system.mem_ctrls1_1.memoryStateTime::REF   2068092000                       # Time in different power states
system.mem_ctrls1_1.memoryStateTime::SREF 967177444626                       # Time in different power states
system.mem_ctrls1_1.memoryStateTime::PRE_PDN  12713542580                       # Time in different power states
system.mem_ctrls1_1.memoryStateTime::ACT   3324580934                       # Time in different power states
system.mem_ctrls1_1.memoryStateTime::ACT_PDN  41424084598                       # Time in different power states
system.pwrStateResidencyTicks::UNDEFINED 111353060767374                       # Cumulative time (in ticks) in various power states
system.cpu.branchPred.lookups                      16                       # Number of BP lookups
system.cpu.branchPred.condPredicted                16                       # Number of conditional branches predicted
system.cpu.branchPred.condIncorrect                13                       # Number of conditional branches incorrect
system.cpu.branchPred.BTBLookups                    0                       # Number of BTB lookups
system.cpu.branchPred.BTBHits                       0                       # Number of BTB hits
system.cpu.branchPred.BTBCorrect                    0                       # Number of correct BTB predictions (this stat may not work properly.
system.cpu.branchPred.BTBHitPct                   nan                       # BTB Hit Percentage
system.cpu.branchPred.usedRAS                       0                       # Number of times the RAS was used to get a target.
system.cpu.branchPred.RASInCorrect                  0                       # Number of incorrect RAS predictions.
system.cpu.branchPred.indirectLookups               0                       # Number of indirect predictor lookups.
system.cpu.branchPred.indirectHits                  0                       # Number of indirect target hits.
system.cpu.branchPred.indirectMisses                0                       # Number of indirect misses.
system.cpu.branchPredindirectMispredicted            0                       # Number of mispredicted indirect branches.
system.cpu_voltage_domain.voltage                   1                       # Voltage in Volts
system.cpu_clk_domain.clock                       333                       # Clock period in ticks
system.cpu.dtb.fetch_hits                           0                       # ITB hits
system.cpu.dtb.fetch_misses                         0                       # ITB misses
system.cpu.dtb.fetch_acv                            0                       # ITB acv
system.cpu.dtb.fetch_accesses                       0                       # ITB accesses
system.cpu.dtb.read_hits                           28                       # DTB read hits
system.cpu.dtb.read_misses                          0                       # DTB read misses
system.cpu.dtb.read_acv                             0                       # DTB read access violations
system.cpu.dtb.read_accesses                       28                       # DTB read accesses
system.cpu.dtb.write_hits                          14                       # DTB write hits
system.cpu.dtb.write_misses                         0                       # DTB write misses
system.cpu.dtb.write_acv                            0                       # DTB write access violations
system.cpu.dtb.write_accesses                      14                       # DTB write accesses
system.cpu.dtb.data_hits                           42                       # DTB hits
system.cpu.dtb.data_misses                          0                       # DTB misses
system.cpu.dtb.data_acv                             0                       # DTB access violations
system.cpu.dtb.data_accesses                       42                       # DTB accesses
system.cpu.itb.fetch_hits                          30                       # ITB hits
system.cpu.itb.fetch_misses                         0                       # ITB misses
system.cpu.itb.fetch_acv                            0                       # ITB acv
system.cpu.itb.fetch_accesses                      30                       # ITB accesses
system.cpu.itb.read_hits                            0                       # DTB read hits
system.cpu.itb.read_misses                          0                       # DTB read misses
system.cpu.itb.read_acv                             0                       # DTB read access violations
system.cpu.itb.read_accesses                        0                       # DTB read accesses
system.cpu.itb.write_hits                           0                       # DTB write hits
system.cpu.itb.write_misses                         0                       # DTB write misses
system.cpu.itb.write_acv                            0                       # DTB write access violations
system.cpu.itb.write_accesses                       0                       # DTB write accesses
system.cpu.itb.data_hits                            0                       # DTB hits
system.cpu.itb.data_misses                          0                       # DTB misses
system.cpu.itb.data_acv                             0                       # DTB access violations
system.cpu.itb.data_accesses                        0                       # DTB accesses
system.cpu.workload.num_syscalls                    6                       # Number of system calls
system.cpu.pwrStateResidencyTicks::ON    1026842013117                       # Cumulative time (in ticks) in various power states
system.cpu.numCycles                              768                       # number of cpu cycles simulated
system.cpu.numWorkItemsStarted                      0                       # number of work items this cpu started
system.cpu.numWorkItemsCompleted                    0                       # number of work items this cpu completed
system.cpu.fetch.icacheStallCycles                176                       # Number of cycles fetch is stalled on an Icache miss
system.cpu.fetch.Insts                            176                       # Number of instructions fetch has processed
system.cpu.fetch.Branches                          16                       # Number of branches that fetch encountered
system.cpu.fetch.Cycles                            29                       # Number of cycles fetch has run and was not squashing or blocked
system.cpu.fetch.SquashCycles                      29                       # Number of cycles fetch has spent squashing
system.cpu.fetch.PendingDrainCycles                23                       # Number of cycles fetch has spent waiting on pipes to drain
system.cpu.fetch.CacheLines                        30                       # Number of cache lines fetched
system.cpu.fetch.IcacheSquashes                    15                       # Number of outstanding Icache misses that were squashed
system.cpu.fetch.rateDist::samples                242                       # Number of instructions fetched each cycle (Total)
system.cpu.fetch.rateDist::mean              0.727273                       # Number of instructions fetched each cycle (Total)
system.cpu.fetch.rateDist::stdev             2.093261                       # Number of instructions fetched each cycle (Total)
system.cpu.fetch.rateDist::underflows               0      0.00%      0.00% # Number of instructions fetched each cycle (Total)
system.cpu.fetch.rateDist::0                      213     88.02%     88.02% # Number of instructions fetched each cycle (Total)
system.cpu.fetch.rateDist::1                        0      0.00%     88.02% # Number of instructions fetched each cycle (Total)
system.cpu.fetch.rateDist::2                        0      0.00%     88.02% # Number of instructions fetched each cycle (Total)
system.cpu.fetch.rateDist::3                        0      0.00%     88.02% # Number of instructions fetched each cycle (Total)
system.cpu.fetch.rateDist::4                       14      5.79%     93.80% # Number of instructions fetched each cycle (Total)
system.cpu.fetch.rateDist::5                        0      0.00%     93.80% # Number of instructions fetched each cycle (Total)
system.cpu.fetch.rateDist::6                        0      0.00%     93.80% # Number of instructions fetched each cycle (Total)
system.cpu.fetch.rateDist::7                        0      0.00%     93.80% # Number of instructions fetched each cycle (Total)
[...]
system.switch_cpus_1.iq.int_inst_queue_writes    202640296                       # Number of integer instruction queue writes
system.switch_cpus_1.iq.int_inst_queue_wakeup_accesses    200868354                       # Number of integer instruction queue wakeup accesses
system.switch_cpus_1.iq.fp_inst_queue_reads        21681                       # Number of floating instruction queue reads
system.switch_cpus_1.iq.fp_inst_queue_writes        21631                       # Number of floating instruction queue writes
system.switch_cpus_1.iq.fp_inst_queue_wakeup_accesses         9581                       # Number of floating instruction queue wakeup accesses
system.switch_cpus_1.iq.int_alu_accesses    204534348                       # Number of integer alu accesses
system.switch_cpus_1.iq.fp_alu_accesses         10979                       # Number of floating point alu accesses
system.switch_cpus_1.iew.lsq.thread0.forwLoads      2212911                       # Number of loads that had data forwarded from stores
system.switch_cpus_1.iew.lsq.thread0.invAddrLoads            0                       # Number of loads ignored due to an invalid address
system.switch_cpus_1.iew.lsq.thread0.squashedLoads       350670                       # Number of loads squashed
system.switch_cpus_1.iew.lsq.thread0.ignoredResponses          198                       # Number of memory responses ignored because the instruction is squashed
system.switch_cpus_1.iew.lsq.thread0.memOrderViolation         3513                       # Number of memory ordering violations
system.switch_cpus_1.iew.lsq.thread0.squashedStores       139581                       # Number of stores squashed
system.switch_cpus_1.iew.lsq.thread0.invAddrSwpfs            0                       # Number of software prefetches ignored due to an invalid address
system.switch_cpus_1.iew.lsq.thread0.blockedLoads            0                       # Number of blocked loads due to partial load-store forwarding
system.switch_cpus_1.iew.lsq.thread0.rescheduledLoads           39                       # Number of loads that were rescheduled
system.switch_cpus_1.iew.lsq.thread0.cacheBlocked       424362                       # Number of times an access to memory failed due to the cache being blocked
system.switch_cpus_1.iew.iewIdleCycles              0                       # Number of cycles IEW is idle
system.switch_cpus_1.iew.iewSquashCycles        36222                       # Number of cycles IEW is squashing
system.switch_cpus_1.iew.iewBlockCycles        348821                       # Number of cycles IEW is blocking
system.switch_cpus_1.iew.iewUnblockCycles      2577845                       # Number of cycles IEW is unblocking
system.switch_cpus_1.iew.iewDispatchedInsts    201463188                       # Number of instructions dispatched to IQ
system.switch_cpus_1.iew.iewDispSquashedInsts         1152                       # Number of squashed instructions skipped by dispatch
system.switch_cpus_1.iew.iewDispLoadInsts     53740470                       # Number of dispatched load instructions
system.switch_cpus_1.iew.iewDispStoreInsts     22318174                       # Number of dispatched store instructions
system.switch_cpus_1.iew.iewDispNonSpecInsts         1874                       # Number of dispatched non-speculative instructions
system.switch_cpus_1.iew.iewIQFullEvents         9777                       # Number of times the IQ has become full, causing a stall
system.switch_cpus_1.iew.iewLSQFullEvents      2554838                       # Number of times the LSQ has become full, causing a stall
system.switch_cpus_1.iew.memOrderViolationEvents         3513                       # Number of memory order violations
system.switch_cpus_1.iew.predictedTakenIncorrect        11654                       # Number of branches that were predicted taken incorrectly
system.switch_cpus_1.iew.predictedNotTakenIncorrect        16816                       # Number of branches that were predicted not taken incorrectly
system.switch_cpus_1.iew.branchMispredicts        28470                       # Number of branch mispredicts detected at execute
system.switch_cpus_1.iew.iewExecutedInsts    201357875                       # Number of executed instructions
system.switch_cpus_1.iew.iewExecLoadInsts     54077010                       # Number of load instructions executed
system.switch_cpus_1.iew.iewExecSquashedInsts        67212                       # Number of squashed instructions skipped in execute
system.switch_cpus_1.iew.exec_swp                   0                       # number of swp insts executed
system.switch_cpus_1.iew.exec_nop              133926                       # number of nop insts executed
system.switch_cpus_1.iew.exec_refs           76338690                       # number of memory reference insts executed
system.switch_cpus_1.iew.exec_branches        9159797                       # Number of branches executed
system.switch_cpus_1.iew.exec_stores         22261680                       # Number of stores executed
system.switch_cpus_1.iew.exec_rate           2.879990                       # Inst execution rate
system.switch_cpus_1.iew.wb_sent            200930077                       # cumulative count of insts sent to commit
system.switch_cpus_1.iew.wb_count           200877935                       # cumulative count of insts written-back
system.switch_cpus_1.iew.wb_producers       130018282                       # num instructions producing a value
system.switch_cpus_1.iew.wb_consumers       178503416                       # num instructions consuming a value
system.switch_cpus_1.iew.wb_rate             2.873125                       # insts written-back per cycle
system.switch_cpus_1.iew.wb_fanout           0.728380                       # average fanout of values written-back
system.switch_cpus_1.commit.commitSquashedInsts      1268941                       # The number of squashed insts skipped by commit
system.switch_cpus_1.commit.commitNonSpecStalls         2565                       # The number of times commit has been forced to stall to communicate backwards
system.switch_cpus_1.commit.branchMispredicts        27195                       # The number of times a branch was mispredicted
system.switch_cpus_1.commit.committed_per_cycle::samples     69695600                       # Number of insts commited each cycle
system.switch_cpus_1.commit.committed_per_cycle::mean     2.871108                       # Number of insts commited each cycle
system.switch_cpus_1.commit.committed_per_cycle::stdev     3.453329                       # Number of insts commited each cycle
system.switch_cpus_1.commit.committed_per_cycle::underflows            0      0.00%      0.00% # Number of insts commited each cycle
system.switch_cpus_1.commit.committed_per_cycle::0     29878192     42.87%     42.87% # Number of insts commited each cycle
system.switch_cpus_1.commit.committed_per_cycle::1     11487460     16.48%     59.35% # Number of insts commited each cycle
system.switch_cpus_1.commit.committed_per_cycle::2      2515703      3.61%     62.96% # Number of insts commited each cycle
system.switch_cpus_1.commit.committed_per_cycle::3      2933599      4.21%     67.17% # Number of insts commited each cycle
system.switch_cpus_1.commit.committed_per_cycle::4       422196      0.61%     67.78% # Number of insts commited each cycle
system.switch_cpus_1.commit.committed_per_cycle::5      1967300      2.82%     70.60% # Number of insts commited each cycle
system.switch_cpus_1.commit.committed_per_cycle::6       203299      0.29%     70.89% # Number of insts commited each cycle
system.switch_cpus_1.commit.committed_per_cycle::7       263939      0.38%     71.27% # Number of insts commited each cycle
system.switch_cpus_1.commit.committed_per_cycle::8     20023912     28.73%    100.00% # Number of insts commited each cycle
system.switch_cpus_1.commit.committed_per_cycle::overflows            0      0.00%    100.00% # Number of insts commited each cycle
system.switch_cpus_1.commit.committed_per_cycle::min_value            0                       # Number of insts commited each cycle
system.switch_cpus_1.commit.committed_per_cycle::max_value            8                       # Number of insts commited each cycle
system.switch_cpus_1.commit.committed_per_cycle::total     69695600                       # Number of insts commited each cycle
system.switch_cpus_1.commit.committedInsts    200103610                       # Number of instructions committed
system.switch_cpus_1.commit.committedOps    200103610                       # Number of ops (including micro ops) committed
system.switch_cpus_1.commit.swp_count               0                       # Number of s/w prefetches committed
system.switch_cpus_1.commit.refs             75568371                       # Number of memory references committed
system.switch_cpus_1.commit.loads            53389787                       # Number of loads committed
system.switch_cpus_1.commit.membars              1282                       # Number of memory barriers committed
system.switch_cpus_1.commit.branches          9081009                       # Number of branches committed
system.switch_cpus_1.commit.fp_insts             7063                       # Number of committed floating point instructions.
system.switch_cpus_1.commit.int_insts       199966042                       # Number of committed integer instructions.
system.switch_cpus_1.commit.function_calls        26169                       # Number of function calls committed.
system.switch_cpus_1.commit.op_class_0::No_OpClass       103604      0.05%      0.05% # Class of committed instruction
system.switch_cpus_1.commit.op_class_0::IntAlu    124425131     62.18%     62.23% # Class of committed instruction
system.switch_cpus_1.commit.op_class_0::IntMult           14      0.00%     62.23% # Class of committed instruction
system.switch_cpus_1.commit.op_class_0::IntDiv            0      0.00%     62.23% # Class of committed instruction
system.switch_cpus_1.commit.op_class_0::FloatAdd         3080      0.00%     62.23% # Class of committed instruction
system.switch_cpus_1.commit.op_class_0::FloatCmp          511      0.00%     62.23% # Class of committed instruction
system.switch_cpus_1.commit.op_class_0::FloatCvt          406      0.00%     62.23% # Class of committed instruction
system.switch_cpus_1.commit.op_class_0::FloatMult         1162      0.00%     62.23% # Class of committed instruction
system.switch_cpus_1.commit.op_class_0::FloatMultAcc            0      0.00%     62.23% # Class of committed instruction
system.switch_cpus_1.commit.op_class_0::FloatDiv           49      0.00%     62.23% # Class of committed instruction
system.switch_cpus_1.commit.op_class_0::FloatMisc            0      0.00%     62.23% # Class of committed instruction
system.switch_cpus_1.commit.op_class_0::FloatSqrt            0      0.00%     62.23% # Class of committed instruction
system.switch_cpus_1.commit.op_class_0::SimdAdd            0      0.00%     62.23% # Class of committed instruction
system.switch_cpus_1.commit.op_class_0::SimdAddAcc            0      0.00%     62.23% # Class of committed instruction
system.switch_cpus_1.commit.op_class_0::SimdAlu            0      0.00%     62.23% # Class of committed instruction
system.switch_cpus_1.commit.op_class_0::SimdCmp            0      0.00%     62.23% # Class of committed instruction
system.switch_cpus_1.commit.op_class_0::SimdCvt            0      0.00%     62.23% # Class of committed instruction
system.switch_cpus_1.commit.op_class_0::SimdMisc            0      0.00%     62.23% # Class of committed instruction
system.switch_cpus_1.commit.op_class_0::SimdMult            0      0.00%     62.23% # Class of committed instruction
system.switch_cpus_1.commit.op_class_0::SimdMultAcc            0      0.00%     62.23% # Class of committed instruction
system.switch_cpus_1.commit.op_class_0::SimdShift            0      0.00%     62.23% # Class of committed instruction
system.switch_cpus_1.commit.op_class_0::SimdShiftAcc            0      0.00%     62.23% # Class of committed instruction
system.switch_cpus_1.commit.op_class_0::SimdSqrt            0      0.00%     62.23% # Class of committed instruction
system.switch_cpus_1.commit.op_class_0::SimdFloatAdd            0      0.00%     62.23% # Class of committed instruction
system.switch_cpus_1.commit.op_class_0::SimdFloatAlu            0      0.00%     62.23% # Class of committed instruction
system.switch_cpus_1.commit.op_class_0::SimdFloatCmp            0      0.00%     62.23% # Class of committed instruction
system.switch_cpus_1.commit.op_class_0::SimdFloatCvt            0      0.00%     62.23% # Class of committed instruction
system.switch_cpus_1.commit.op_class_0::SimdFloatDiv            0      0.00%     62.23% # Class of committed instruction
system.switch_cpus_1.commit.op_class_0::SimdFloatMisc            0      0.00%     62.23% # Class of committed instruction
system.switch_cpus_1.commit.op_class_0::SimdFloatMult            0      0.00%     62.23% # Class of committed instruction
system.switch_cpus_1.commit.op_class_0::SimdFloatMultAcc            0      0.00%     62.23% # Class of committed instruction
system.switch_cpus_1.commit.op_class_0::SimdFloatSqrt            0      0.00%     62.23% # Class of committed instruction
system.switch_cpus_1.commit.op_class_0::MemRead     53389445     26.68%     88.92% # Class of committed instruction
system.switch_cpus_1.commit.op_class_0::MemWrite     22178353     11.08%    100.00% # Class of committed instruction
system.switch_cpus_1.commit.op_class_0::FloatMemRead         1624      0.00%    100.00% # Class of committed instruction
system.switch_cpus_1.commit.op_class_0::FloatMemWrite          231      0.00%    100.00% # Class of committed instruction
system.switch_cpus_1.commit.op_class_0::IprAccess            0      0.00%    100.00% # Class of committed instruction
system.switch_cpus_1.commit.op_class_0::InstPrefetch            0      0.00%    100.00% # Class of committed instruction
system.switch_cpus_1.commit.op_class_0::total    200103610                       # Class of committed instruction
system.switch_cpus_1.commit.bw_lim_events     20023912                       # number cycles where commit BW limit reached
system.switch_cpus_1.rob.rob_reads          250965108                       # The number of ROB reads
system.switch_cpus_1.rob.rob_writes         402931905                       # The number of ROB writes
system.switch_cpus_1.timesIdled                   871                       # Number of times that the entire CPU went into an idle state and unscheduled itself
system.switch_cpus_1.idleCycles                 36287                       # Total number of cycles that the CPU has spent unscheduled due to idling
system.switch_cpus_1.committedInsts         200000006                       # Number of Instructions Simulated
system.switch_cpus_1.committedOps           200000006                       # Number of Ops (including micro ops) Simulated
system.switch_cpus_1.cpi                     0.349581                       # CPI: Cycles Per Instruction
system.switch_cpus_1.cpi_total               0.349581                       # CPI: Total CPI of All Threads
system.switch_cpus_1.ipc                     2.860568                       # IPC: Instructions Per Cycle
system.switch_cpus_1.ipc_total               2.860568                       # IPC: Total IPC of All Threads
system.switch_cpus_1.int_regfile_reads      323290085                       # number of integer regfile reads
system.switch_cpus_1.int_regfile_writes     169527950                       # number of integer regfile writes
system.switch_cpus_1.fp_regfile_reads           12486                       # number of floating regfile reads
system.switch_cpus_1.fp_regfile_writes           8178                       # number of floating regfile writes
system.switch_cpus_1.misc_regfile_reads         13759                       # number of misc regfile reads
system.switch_cpus_1.misc_regfile_writes         2564                       # number of misc regfile writes
system.tol3bus.snoop_filter.tot_requests      5443193                       # Total number of requests made to the snoop filter.
system.tol3bus.snoop_filter.hit_single_requests      2719274                       # Number of requests hitting in the snoop filter with a single holder of the requested data.
system.tol3bus.snoop_filter.hit_multi_requests            0                       # Number of requests hitting in the snoop filter with multiple (>1) holders of the requested data.
system.tol3bus.snoop_filter.tot_snoops            931                       # Total number of snoops made to the snoop filter.
system.tol3bus.snoop_filter.hit_single_snoops          931                       # Number of snoops hitting in the snoop filter with a single holder of the requested data.
system.tol3bus.snoop_filter.hit_multi_snoops            0                       # Number of snoops hitting in the snoop filter with multiple (>1) holders of the requested data.
system.tol3bus.pwrStateResidencyTicks::UNDEFINED 111353060767374                       # Cumulative time (in ticks) in various power states
system.tol3bus.trans_dist::ReadResp            206244                       # Transaction distribution
system.tol3bus.trans_dist::WritebackDirty      2622776                       # Transaction distribution
system.tol3bus.trans_dist::CleanEvict          168630                       # Transaction distribution
system.tol3bus.trans_dist::ReadExReq          2517675                       # Transaction distribution
system.tol3bus.trans_dist::ReadExResp         2517675                       # Transaction distribution
system.tol3bus.trans_dist::ReadSharedReq       206244                       # Transaction distribution
system.tol3bus.pkt_count_system.cpu.l2.mem_side::system.l3.cpu_side      8167112                       # Packet count per connected master and slave (bytes)
system.tol3bus.pkt_size_system.cpu.l2.mem_side::system.l3.cpu_side    337675776                       # Cumulative packet size per connected master and slave (bytes)
system.tol3bus.snoops                           72132                       # Total snoops (count)
system.tol3bus.snoopTraffic                   4512704                       # Total snoop traffic (bytes)
system.tol3bus.snoop_fanout::samples          2796051                       # Request fanout histogram
system.tol3bus.snoop_fanout::mean            0.000333                       # Request fanout histogram
system.tol3bus.snoop_fanout::stdev           0.018244                       # Request fanout histogram
system.tol3bus.snoop_fanout::underflows             0      0.00%      0.00% # Request fanout histogram
system.tol3bus.snoop_fanout::0                2795120     99.97%     99.97% # Request fanout histogram
system.tol3bus.snoop_fanout::1                    931      0.03%    100.00% # Request fanout histogram
system.tol3bus.snoop_fanout::overflows              0      0.00%    100.00% # Request fanout histogram
system.tol3bus.snoop_fanout::min_value              0                       # Request fanout histogram
system.tol3bus.snoop_fanout::max_value              1                       # Request fanout histogram
system.tol3bus.snoop_fanout::total            2796051                       # Request fanout histogram
system.tol3bus.reqLayer0.occupancy         2662487514                       # Layer occupancy (ticks)
system.tol3bus.reqLayer0.utilization              0.3                       # Layer utilization (%)
system.tol3bus.respLayer0.occupancy        1814130054                       # Layer occupancy (ticks)
system.tol3bus.respLayer0.utilization             0.2                       # Layer utilization (%)

---------- End Simulation Statistics   ----------
