
---------- Begin Simulation Statistics ----------
sim_seconds                                  1.114509                       # Number of seconds simulated
sim_ticks                                1114509399975                       # Number of ticks simulated
final_tick                               18767850790905                       # Number of ticks from beginning of simulation (restored from checkpoints and never reset)
sim_freq                                 1000000000000                       # Frequency of simulated ticks
host_inst_rate                                 532972                       # Simulator instruction rate (inst/s)
host_op_rate                                   532972                       # Simulator op (including micro ops) rate (op/s)
host_tick_rate                              495002220                       # Simulator tick rate (ticks/s)
host_mem_usage                                2396192                       # Number of bytes of host memory used
host_seconds                                  2251.52                       # Real time elapsed on the host
sim_insts                                  1200000011                       # Number of instructions simulated
sim_ops                                    1200000011                       # Number of ops (including micro ops) simulated
system.voltage_domain.voltage                       1                       # Voltage in Volts
system.clk_domain.clock                          1000                       # Clock period in ticks
system.mem_ctrls0.pwrStateResidencyTicks::UNDEFINED 18767850790905                       # Cumulative time (in ticks) in various power states
system.mem_ctrls0.bytes_read::cpu.inst            192                       # Number of bytes read from this memory
system.mem_ctrls0.bytes_read::switch_cpus.inst       116096                       # Number of bytes read from this memory
system.mem_ctrls0.bytes_read::switch_cpus.data      8056896                       # Number of bytes read from this memory
system.mem_ctrls0.bytes_read::switch_cpus_1.inst        13888                       # Number of bytes read from this memory
system.mem_ctrls0.bytes_read::switch_cpus_1.data      1366912                       # Number of bytes read from this memory
system.mem_ctrls0.bytes_read::total           9553984                       # Number of bytes read from this memory
system.mem_ctrls0.bytes_inst_read::cpu.inst          192                       # Number of instructions bytes read from this memory
system.mem_ctrls0.bytes_inst_read::switch_cpus.inst       116096                       # Number of instructions bytes read from this memory
system.mem_ctrls0.bytes_inst_read::switch_cpus_1.inst        13888                       # Number of instructions bytes read from this memory
system.mem_ctrls0.bytes_inst_read::total       130176                       # Number of instructions bytes read from this memory
system.mem_ctrls0.bytes_written::writebacks      5934208                       # Number of bytes written to this memory
system.mem_ctrls0.bytes_written::total        5934208                       # Number of bytes written to this memory
system.mem_ctrls0.num_reads::cpu.inst               3                       # Number of read requests responded to by this memory
system.mem_ctrls0.num_reads::switch_cpus.inst         1814                       # Number of read requests responded to by this memory
system.mem_ctrls0.num_reads::switch_cpus.data       125889                       # Number of read requests responded to by this memory
system.mem_ctrls0.num_reads::switch_cpus_1.inst          217                       # Number of read requests responded to by this memory
system.mem_ctrls0.num_reads::switch_cpus_1.data        21358                       # Number of read requests responded to by this memory
system.mem_ctrls0.num_reads::total             149281                       # Number of read requests responded to by this memory
system.mem_ctrls0.num_writes::writebacks        92722                       # Number of write requests responded to by this memory
system.mem_ctrls0.num_writes::total             92722                       # Number of write requests responded to by this memory
system.mem_ctrls0.bw_read::cpu.inst               172                       # Total read bandwidth from this memory (bytes/s)
system.mem_ctrls0.bw_read::switch_cpus.inst       104168                       # Total read bandwidth from this memory (bytes/s)
system.mem_ctrls0.bw_read::switch_cpus.data      7229096                       # Total read bandwidth from this memory (bytes/s)
system.mem_ctrls0.bw_read::switch_cpus_1.inst        12461                       # Total read bandwidth from this memory (bytes/s)
system.mem_ctrls0.bw_read::switch_cpus_1.data      1226470                       # Total read bandwidth from this memory (bytes/s)
system.mem_ctrls0.bw_read::total              8572367                       # Total read bandwidth from this memory (bytes/s)
system.mem_ctrls0.bw_inst_read::cpu.inst          172                       # Instruction read bandwidth from this memory (bytes/s)
system.mem_ctrls0.bw_inst_read::switch_cpus.inst       104168                       # Instruction read bandwidth from this memory (bytes/s)
system.mem_ctrls0.bw_inst_read::switch_cpus_1.inst        12461                       # Instruction read bandwidth from this memory (bytes/s)
system.mem_ctrls0.bw_inst_read::total          116801                       # Instruction read bandwidth from this memory (bytes/s)
system.mem_ctrls0.bw_write::writebacks        5324502                       # Write bandwidth from this memory (bytes/s)
system.mem_ctrls0.bw_write::total             5324502                       # Write bandwidth from this memory (bytes/s)
system.mem_ctrls0.bw_total::writebacks        5324502                       # Total bandwidth to/from this memory (bytes/s)
system.mem_ctrls0.bw_total::cpu.inst              172                       # Total bandwidth to/from this memory (bytes/s)
system.mem_ctrls0.bw_total::switch_cpus.inst       104168                       # Total bandwidth to/from this memory (bytes/s)
system.mem_ctrls0.bw_total::switch_cpus.data      7229096                       # Total bandwidth to/from this memory (bytes/s)
system.mem_ctrls0.bw_total::switch_cpus_1.inst        12461                       # Total bandwidth to/from this memory (bytes/s)
system.mem_ctrls0.bw_total::switch_cpus_1.data      1226470                       # Total bandwidth to/from this memory (bytes/s)
system.mem_ctrls0.bw_total::total            13896870                       # Total bandwidth to/from this memory (bytes/s)
system.mem_ctrls0.readReqs                     149281                       # Number of read requests accepted
system.mem_ctrls0.writeReqs                     92722                       # Number of write requests accepted
system.mem_ctrls0.readBursts                   149281                       # Number of DRAM read bursts, including those serviced by the write queue
system.mem_ctrls0.writeBursts                   92722                       # Number of DRAM write bursts, including those merged in the write queue
system.mem_ctrls0.bytesReadDRAM               9549376                       # Total number of bytes read from DRAM
system.mem_ctrls0.bytesReadWrQ                   4608                       # Total number of bytes read from write queue
system.mem_ctrls0.bytesWritten                5932480                       # Total number of bytes written to DRAM
system.mem_ctrls0.bytesReadSys                9553984                       # Total read bytes from the system interface side
system.mem_ctrls0.bytesWrittenSys             5934208                       # Total written bytes from the system interface side
system.mem_ctrls0.servicedByWrQ                    72                       # Number of DRAM read bursts serviced by the write queue
system.mem_ctrls0.mergedWrBursts                    0                       # Number of DRAM write bursts merged with an existing one
system.mem_ctrls0.neitherReadNorWriteReqs            0                       # Number of requests that are neither read nor write
system.mem_ctrls0.perBankRdBursts::0             9051                       # Per bank write bursts
system.mem_ctrls0.perBankRdBursts::1             9348                       # Per bank write bursts
system.mem_ctrls0.perBankRdBursts::2             9351                       # Per bank write bursts
system.mem_ctrls0.perBankRdBursts::3             9909                       # Per bank write bursts
system.mem_ctrls0.perBankRdBursts::4             9892                       # Per bank write bursts
system.mem_ctrls0.perBankRdBursts::5             9437                       # Per bank write bursts
system.mem_ctrls0.perBankRdBursts::6             8869                       # Per bank write bursts
system.mem_ctrls0.perBankRdBursts::7             8979                       # Per bank write bursts
system.mem_ctrls0.perBankRdBursts::8             9544                       # Per bank write bursts
system.mem_ctrls0.perBankRdBursts::9             9777                       # Per bank write bursts
system.mem_ctrls0.perBankRdBursts::10            9163                       # Per bank write bursts
system.mem_ctrls0.perBankRdBursts::11            9528                       # Per bank write bursts
system.mem_ctrls0.perBankRdBursts::12            9291                       # Per bank write bursts
system.mem_ctrls0.perBankRdBursts::13            9207                       # Per bank write bursts
system.mem_ctrls0.perBankRdBursts::14            9029                       # Per bank write bursts
system.mem_ctrls0.perBankRdBursts::15            8834                       # Per bank write bursts
system.mem_ctrls0.perBankWrBursts::0             5913                       # Per bank write bursts
system.mem_ctrls0.perBankWrBursts::1             6091                       # Per bank write bursts
system.mem_ctrls0.perBankWrBursts::2             5908                       # Per bank write bursts
system.mem_ctrls0.perBankWrBursts::3             6187                       # Per bank write bursts
system.mem_ctrls0.perBankWrBursts::4             6099                       # Per bank write bursts
system.mem_ctrls0.perBankWrBursts::5             5746                       # Per bank write bursts
system.mem_ctrls0.perBankWrBursts::6             5414                       # Per bank write bursts
system.mem_ctrls0.perBankWrBursts::7             5400                       # Per bank write bursts
system.mem_ctrls0.perBankWrBursts::8             5524                       # Per bank write bursts
system.mem_ctrls0.perBankWrBursts::9             5649                       # Per bank write bursts
system.mem_ctrls0.perBankWrBursts::10            5812                       # Per bank write bursts
system.mem_ctrls0.perBankWrBursts::11            6237                       # Per bank write bursts
system.mem_ctrls0.perBankWrBursts::12            5904                       # Per bank write bursts
system.mem_ctrls0.perBankWrBursts::13            5710                       # Per bank write bursts
system.mem_ctrls0.perBankWrBursts::14            5507                       # Per bank write bursts
system.mem_ctrls0.perBankWrBursts::15            5594                       # Per bank write bursts
system.mem_ctrls0.numRdRetry                        0                       # Number of times read queue was full causing retry
system.mem_ctrls0.numWrRetry                        0                       # Number of times write queue was full causing retry
system.mem_ctrls0.totGap                 1114509342366                       # Total gap between requests
system.mem_ctrls0.readPktSize::0                    0                       # Read request sizes (log2)
system.mem_ctrls0.readPktSize::1                    0                       # Read request sizes (log2)
system.mem_ctrls0.readPktSize::2                    0                       # Read request sizes (log2)
system.mem_ctrls0.readPktSize::3                    0                       # Read request sizes (log2)
system.mem_ctrls0.readPktSize::4                    0                       # Read request sizes (log2)
system.mem_ctrls0.readPktSize::5                    0                       # Read request sizes (log2)
system.mem_ctrls0.readPktSize::6               149281                       # Read request sizes (log2)
system.mem_ctrls0.writePktSize::0                   0                       # Write request sizes (log2)
system.mem_ctrls0.writePktSize::1                   0                       # Write request sizes (log2)
system.mem_ctrls0.writePktSize::2                   0                       # Write request sizes (log2)
system.mem_ctrls0.writePktSize::3                   0                       # Write request sizes (log2)
system.mem_ctrls0.writePktSize::4                   0                       # Write request sizes (log2)
system.mem_ctrls0.writePktSize::5                   0                       # Write request sizes (log2)
system.mem_ctrls0.writePktSize::6               92722                       # Write request sizes (log2)
system.mem_ctrls0.rdQLenPdf::0                 147530                       # What read queue length does an incoming req see
system.mem_ctrls0.rdQLenPdf::1                   1642                       # What read queue length does an incoming req see
system.mem_ctrls0.rdQLenPdf::2                     37                       # What read queue length does an incoming req see
system.mem_ctrls0.rdQLenPdf::3                      0                       # What read queue length does an incoming req see
system.mem_ctrls0.rdQLenPdf::4                      0                       # What read queue length does an incoming req see
system.mem_ctrls0.rdQLenPdf::5                      0                       # What read queue length does an incoming req see
system.mem_ctrls0.rdQLenPdf::6                      0                       # What read queue length does an incoming req see
system.mem_ctrls0.rdQLenPdf::7                      0                       # What read queue length does an incoming req see
system.mem_ctrls0.rdQLenPdf::8                      0                       # What read queue length does an incoming req see
system.mem_ctrls0.rdQLenPdf::9                      0                       # What read queue length does an incoming req see
system.mem_ctrls0.rdQLenPdf::10                     0                       # What read queue length does an incoming req see
system.mem_ctrls0.rdQLenPdf::11                     0                       # What read queue length does an incoming req see
system.mem_ctrls0.rdQLenPdf::12                     0                       # What read queue length does an incoming req see
system.mem_ctrls0.rdQLenPdf::13                     0                       # What read queue length does an incoming req see
system.mem_ctrls0.rdQLenPdf::14                     0                       # What read queue length does an incoming req see
system.mem_ctrls0.rdQLenPdf::15                     0                       # What read queue length does an incoming req see
system.mem_ctrls0.rdQLenPdf::16                     0                       # What read queue length does an incoming req see
system.mem_ctrls0.rdQLenPdf::17                     0                       # What read queue length does an incoming req see
system.mem_ctrls0.rdQLenPdf::18                     0                       # What read queue length does an incoming req see
system.mem_ctrls0.rdQLenPdf::19                     0                       # What read queue length does an incoming req see
system.mem_ctrls0.rdQLenPdf::20                     0                       # What read queue length does an incoming req see
system.mem_ctrls0.rdQLenPdf::21                     0                       # What read queue length does an incoming req see
system.mem_ctrls0.rdQLenPdf::22                     0                       # What read queue length does an incoming req see
system.mem_ctrls0.rdQLenPdf::23                     0                       # What read queue length does an incoming req see
system.mem_ctrls0.rdQLenPdf::24                     0                       # What read queue length does an incoming req see
system.mem_ctrls0.rdQLenPdf::25                     0                       # What read queue length does an incoming req see
system.mem_ctrls0.rdQLenPdf::26                     0                       # What read queue length does an incoming req see
system.mem_ctrls0.rdQLenPdf::27                     0                       # What read queue length does an incoming req see
system.mem_ctrls0.rdQLenPdf::28                     0                       # What read queue length does an incoming req see
system.mem_ctrls0.rdQLenPdf::29                     0                       # What read queue length does an incoming req see
system.mem_ctrls0.rdQLenPdf::30                     0                       # What read queue length does an incoming req see
system.mem_ctrls0.rdQLenPdf::31                     0                       # What read queue length does an incoming req see
system.mem_ctrls0.wrQLenPdf::0                      2                       # What write queue length does an incoming req see
system.mem_ctrls0.wrQLenPdf::1                      2                       # What write queue length does an incoming req see
system.mem_ctrls0.wrQLenPdf::2                      2                       # What write queue length does an incoming req see
system.mem_ctrls0.wrQLenPdf::3                      2                       # What write queue length does an incoming req see
system.mem_ctrls0.wrQLenPdf::4                      2                       # What write queue length does an incoming req see
system.mem_ctrls0.wrQLenPdf::5                      2                       # What write queue length does an incoming req see
system.mem_ctrls0.wrQLenPdf::6                      2                       # What write queue length does an incoming req see
system.mem_ctrls0.wrQLenPdf::7                      2                       # What write queue length does an incoming req see
system.mem_ctrls0.wrQLenPdf::8                      2                       # What write queue length does an incoming req see
system.mem_ctrls0.wrQLenPdf::9                      2                       # What write queue length does an incoming req see
system.mem_ctrls0.wrQLenPdf::10                     2                       # What write queue length does an incoming req see
system.mem_ctrls0.wrQLenPdf::11                     2                       # What write queue length does an incoming req see
system.mem_ctrls0.wrQLenPdf::12                     2                       # What write queue length does an incoming req see
system.mem_ctrls0.wrQLenPdf::13                     2                       # What write queue length does an incoming req see
system.mem_ctrls0.wrQLenPdf::14                     2                       # What write queue length does an incoming req see
system.mem_ctrls0.wrQLenPdf::15                  4190                       # What write queue length does an incoming req see
system.mem_ctrls0.wrQLenPdf::16                  4257                       # What write queue length does an incoming req see
system.mem_ctrls0.wrQLenPdf::17                  5156                       # What write queue length does an incoming req see
system.mem_ctrls0.wrQLenPdf::18                  5249                       # What write queue length does an incoming req see
system.mem_ctrls0.wrQLenPdf::19                  5262                       # What write queue length does an incoming req see
system.mem_ctrls0.wrQLenPdf::20                  5271                       # What write queue length does an incoming req see
system.mem_ctrls0.wrQLenPdf::21                  5274                       # What write queue length does an incoming req see
system.mem_ctrls0.wrQLenPdf::22                  5262                       # What write queue length does an incoming req see
system.mem_ctrls0.wrQLenPdf::23                  5265                       # What write queue length does an incoming req see
system.mem_ctrls0.wrQLenPdf::24                  5264                       # What write queue length does an incoming req see
system.mem_ctrls0.wrQLenPdf::25                  5295                       # What write queue length does an incoming req see
system.mem_ctrls0.wrQLenPdf::26                  5305                       # What write queue length does an incoming req see
system.mem_ctrls0.wrQLenPdf::27                  5281                       # What write queue length does an incoming req see
system.mem_ctrls0.wrQLenPdf::28                  5264                       # What write queue length does an incoming req see
system.mem_ctrls0.wrQLenPdf::29                  5256                       # What write queue length does an incoming req see
system.mem_ctrls0.wrQLenPdf::30                  5246                       # What write queue length does an incoming req see
system.mem_ctrls0.wrQLenPdf::31                  5241                       # What write queue length does an incoming req see
system.mem_ctrls0.wrQLenPdf::32                  5235                       # What write queue length does an incoming req see
system.mem_ctrls0.wrQLenPdf::33                    90                       # What write queue length does an incoming req see
system.mem_ctrls0.wrQLenPdf::34                    16                       # What write queue length does an incoming req see
system.mem_ctrls0.wrQLenPdf::35                     7                       # What write queue length does an incoming req see
system.mem_ctrls0.wrQLenPdf::36                     3                       # What write queue length does an incoming req see
system.mem_ctrls0.wrQLenPdf::37                     2                       # What write queue length does an incoming req see
system.mem_ctrls0.wrQLenPdf::38                     1                       # What write queue length does an incoming req see
system.mem_ctrls0.wrQLenPdf::39                     0                       # What write queue length does an incoming req see
system.mem_ctrls0.wrQLenPdf::40                     0                       # What write queue length does an incoming req see
system.mem_ctrls0.wrQLenPdf::41                     0                       # What write queue length does an incoming req see
system.mem_ctrls0.wrQLenPdf::42                     0                       # What write queue length does an incoming req see
system.mem_ctrls0.wrQLenPdf::43                     0                       # What write queue length does an incoming req see
system.mem_ctrls0.wrQLenPdf::44                     0                       # What write queue length does an incoming req see
system.mem_ctrls0.wrQLenPdf::45                     0                       # What write queue length does an incoming req see
system.mem_ctrls0.wrQLenPdf::46                     0                       # What write queue length does an incoming req see
system.mem_ctrls0.wrQLenPdf::47                     0                       # What write queue length does an incoming req see
system.mem_ctrls0.wrQLenPdf::48                     0                       # What write queue length does an incoming req see
system.mem_ctrls0.wrQLenPdf::49                     0                       # What write queue length does an incoming req see
system.mem_ctrls0.wrQLenPdf::50                     0                       # What write queue length does an incoming req see
system.mem_ctrls0.wrQLenPdf::51                     0                       # What write queue length does an incoming req see
system.mem_ctrls0.wrQLenPdf::52                     0                       # What write queue length does an incoming req see
system.mem_ctrls0.wrQLenPdf::53                     0                       # What write queue length does an incoming req see
system.mem_ctrls0.wrQLenPdf::54                     0                       # What write queue length does an incoming req see
system.mem_ctrls0.wrQLenPdf::55                     0                       # What write queue length does an incoming req see
system.mem_ctrls0.wrQLenPdf::56                     0                       # What write queue length does an incoming req see
system.mem_ctrls0.wrQLenPdf::57                     0                       # What write queue length does an incoming req see
system.mem_ctrls0.wrQLenPdf::58                     0                       # What write queue length does an incoming req see
system.mem_ctrls0.wrQLenPdf::59                     0                       # What write queue length does an incoming req see
system.mem_ctrls0.wrQLenPdf::60                     0                       # What write queue length does an incoming req see
system.mem_ctrls0.wrQLenPdf::61                     0                       # What write queue length does an incoming req see
system.mem_ctrls0.wrQLenPdf::62                     0                       # What write queue length does an incoming req see
system.mem_ctrls0.wrQLenPdf::63                     0                       # What write queue length does an incoming req see
system.mem_ctrls0.bytesPerActivate::samples       212079                       # Bytes accessed per row activation
system.mem_ctrls0.bytesPerActivate::mean    73.000420                       # Bytes accessed per row activation
system.mem_ctrls0.bytesPerActivate::gmean    68.296884                       # Bytes accessed per row activation
system.mem_ctrls0.bytesPerActivate::stdev    56.065567                       # Bytes accessed per row activation
system.mem_ctrls0.bytesPerActivate::0-127       197091     92.93%     92.93% # Bytes accessed per row activation
system.mem_ctrls0.bytesPerActivate::128-255        12806      6.04%     98.97% # Bytes accessed per row activation
system.mem_ctrls0.bytesPerActivate::256-383          902      0.43%     99.40% # Bytes accessed per row activation
system.mem_ctrls0.bytesPerActivate::384-511          368      0.17%     99.57% # Bytes accessed per row activation
system.mem_ctrls0.bytesPerActivate::512-639          232      0.11%     99.68% # Bytes accessed per row activation
system.mem_ctrls0.bytesPerActivate::640-767          152      0.07%     99.75% # Bytes accessed per row activation
system.mem_ctrls0.bytesPerActivate::768-895           97      0.05%     99.80% # Bytes accessed per row activation
system.mem_ctrls0.bytesPerActivate::896-1023          184      0.09%     99.88% # Bytes accessed per row activation
system.mem_ctrls0.bytesPerActivate::1024-1151          247      0.12%    100.00% # Bytes accessed per row activation
system.mem_ctrls0.bytesPerActivate::total       212079                       # Bytes accessed per row activation
system.mem_ctrls0.rdPerTurnAround::samples         5236                       # Reads before turning the bus around for writes
system.mem_ctrls0.rdPerTurnAround::mean     28.496753                       # Reads before turning the bus around for writes
system.mem_ctrls0.rdPerTurnAround::stdev   358.415854                       # Reads before turning the bus around for writes
system.mem_ctrls0.rdPerTurnAround::0-1023         5235     99.98%     99.98% # Reads before turning the bus around for writes
system.mem_ctrls0.rdPerTurnAround::25600-26623            1      0.02%    100.00% # Reads before turning the bus around for writes
system.mem_ctrls0.rdPerTurnAround::total         5236                       # Reads before turning the bus around for writes
system.mem_ctrls0.wrPerTurnAround::samples         5236                       # Writes before turning the bus around for reads
system.mem_ctrls0.wrPerTurnAround::mean     17.703400                       # Writes before turning the bus around for reads
system.mem_ctrls0.wrPerTurnAround::gmean    17.679067                       # Writes before turning the bus around for reads
system.mem_ctrls0.wrPerTurnAround::stdev     0.920776                       # Writes before turning the bus around for reads
system.mem_ctrls0.wrPerTurnAround::16             998     19.06%     19.06% # Writes before turning the bus around for reads
system.mem_ctrls0.wrPerTurnAround::17              42      0.80%     19.86% # Writes before turning the bus around for reads
system.mem_ctrls0.wrPerTurnAround::18            3807     72.71%     92.57% # Writes before turning the bus around for reads
system.mem_ctrls0.wrPerTurnAround::19             331      6.32%     98.89% # Writes before turning the bus around for reads
system.mem_ctrls0.wrPerTurnAround::20              41      0.78%     99.68% # Writes before turning the bus around for reads
system.mem_ctrls0.wrPerTurnAround::21               8      0.15%     99.83% # Writes before turning the bus around for reads
system.mem_ctrls0.wrPerTurnAround::22               5      0.10%     99.92% # Writes before turning the bus around for reads
system.mem_ctrls0.wrPerTurnAround::23               1      0.02%     99.94% # Writes before turning the bus around for reads
system.mem_ctrls0.wrPerTurnAround::24               2      0.04%     99.98% # Writes before turning the bus around for reads
system.mem_ctrls0.wrPerTurnAround::29               1      0.02%    100.00% # Writes before turning the bus around for reads
system.mem_ctrls0.wrPerTurnAround::total         5236                       # Writes before turning the bus around for reads
system.mem_ctrls0.totQLat                 27603203321                       # Total ticks spent queuing
system.mem_ctrls0.totMemAccLat            30400872071                       # Total ticks spent from burst creation until serviced by the DRAM
system.mem_ctrls0.totBusLat                 746045000                       # Total ticks spent in databus transfers
system.mem_ctrls0.avgQLat                   184996.91                       # Average queueing delay per DRAM burst
system.mem_ctrls0.avgBusLat                   5000.00                       # Average bus latency per DRAM burst
system.mem_ctrls0.avgMemAccLat              203746.91                       # Average memory access latency per DRAM burst
system.mem_ctrls0.avgRdBW                        8.57                       # Average DRAM read bandwidth in MiByte/s
system.mem_ctrls0.avgWrBW                        5.32                       # Average achieved write bandwidth in MiByte/s
system.mem_ctrls0.avgRdBWSys                     8.57                       # Average system read bandwidth in MiByte/s
system.mem_ctrls0.avgWrBWSys                     5.32                       # Average system write bandwidth in MiByte/s
system.mem_ctrls0.peakBW                     12800.00                       # Theoretical peak bandwidth in MiByte/s
system.mem_ctrls0.busUtil                        0.11                       # Data bus utilization in percentage
system.mem_ctrls0.busUtilRead                    0.07                       # Data bus utilization in percentage for reads
system.mem_ctrls0.busUtilWrite                   0.04                       # Data bus utilization in percentage for writes
system.mem_ctrls0.avgRdQLen                      1.00                       # Average read queue length when enqueuing
system.mem_ctrls0.avgWrQLen                     20.84                       # Average write queue length when enqueuing
system.mem_ctrls0.readRowHits                   20736                       # Number of row buffer hits during reads
system.mem_ctrls0.writeRowHits                   9089                       # Number of row buffer hits during writes
system.mem_ctrls0.readRowHitRate                13.90                       # Row buffer hit rate for reads
system.mem_ctrls0.writeRowHitRate                9.80                       # Row buffer hit rate for writes
system.mem_ctrls0.avgGap                   4605353.41                       # Average gap between requests
system.mem_ctrls0.pageHitRate                   12.33                       # Row buffer hit rate, read and write combined
system.mem_ctrls0_0.actEnergy               762430620                       # Energy for activate commands per rank (pJ)
system.mem_ctrls0_0.preEnergy               405241485                       # Energy for precharge commands per rank (pJ)
system.mem_ctrls0_0.readEnergy              534329040                       # Energy for read commands per rank (pJ)
system.mem_ctrls0_0.writeEnergy             244076760                       # Energy for write commands per rank (pJ)
system.mem_ctrls0_0.refreshEnergy        58086553200.000015                       # Energy for refresh commands per rank (pJ)
system.mem_ctrls0_0.actBackEnergy         20262922020                       # Energy for active background per rank (pJ)
system.mem_ctrls0_0.preBackEnergy          3384111360                       # Energy for precharge background per rank (pJ)
system.mem_ctrls0_0.actPowerDownEnergy   114932926980                       # Energy for active power-down per rank (pJ)
system.mem_ctrls0_0.prePowerDownEnergy    96822422400                       # Energy for precharge power-down per rank (pJ)
system.mem_ctrls0_0.selfRefreshEnergy    147293292345                       # Energy for self refresh per rank (pJ)
system.mem_ctrls0_0.totalEnergy          442755964260                       # Total energy per rank (pJ)
system.mem_ctrls0_0.averagePower           397.265344                       # Core power per rank (mW)
system.mem_ctrls0_0.totalIdleTime        1061194521512                       # Total Idle time Per DRAM Rank
system.mem_ctrls0_0.memoryStateTime::IDLE   6773039716                       # Time in different power states
system.mem_ctrls0_0.memoryStateTime::REF  24721696000                       # Time in different power states
system.mem_ctrls0_0.memoryStateTime::SREF 557011227225                       # Time in different power states
system.mem_ctrls0_0.memoryStateTime::PRE_PDN 252141801904                       # Time in different power states
system.mem_ctrls0_0.memoryStateTime::ACT  21815623518                       # Time in different power states
system.mem_ctrls0_0.memoryStateTime::ACT_PDN 252046011612                       # Time in different power states
system.mem_ctrls0_1.actEnergy               751813440                       # Energy for activate commands per rank (pJ)
system.mem_ctrls0_1.preEnergy               399598320                       # Energy for precharge commands per rank (pJ)
system.mem_ctrls0_1.readEnergy              531023220                       # Energy for read commands per rank (pJ)
system.mem_ctrls0_1.writeEnergy             239791140                       # Energy for write commands per rank (pJ)
system.mem_ctrls0_1.refreshEnergy        58153548960.000015                       # Energy for refresh commands per rank (pJ)
system.mem_ctrls0_1.actBackEnergy         20154482370                       # Energy for active background per rank (pJ)
system.mem_ctrls0_1.preBackEnergy          3414444480                       # Energy for precharge background per rank (pJ)
system.mem_ctrls0_1.actPowerDownEnergy   114355581390                       # Energy for active power-down per rank (pJ)
system.mem_ctrls0_1.prePowerDownEnergy    97027817280                       # Energy for precharge power-down per rank (pJ)
system.mem_ctrls0_1.selfRefreshEnergy    147639613620                       # Energy for self refresh per rank (pJ)
system.mem_ctrls0_1.totalEnergy          442694767920                       # Total energy per rank (pJ)
system.mem_ctrls0_1.averagePower           397.210433                       # Core power per rank (mW)
system.mem_ctrls0_1.totalIdleTime        1061352045486                       # Total Idle time Per DRAM Rank
system.mem_ctrls0_1.memoryStateTime::IDLE   6849961959                       # Time in different power states
system.mem_ctrls0_1.memoryStateTime::REF  24751296000                       # Time in different power states
system.mem_ctrls0_1.memoryStateTime::SREF 557902650709                       # Time in different power states
system.mem_ctrls0_1.memoryStateTime::PRE_PDN 252676799029                       # Time in different power states
system.mem_ctrls0_1.memoryStateTime::ACT  21548918764                       # Time in different power states
system.mem_ctrls0_1.memoryStateTime::ACT_PDN 250779773514                       # Time in different power states
system.mem_ctrls1.pwrStateResidencyTicks::UNDEFINED 18767850790905                       # Cumulative time (in ticks) in various power states
system.mem_ctrls1.bytes_read::cpu.inst            128                       # Number of bytes read from this memory
system.mem_ctrls1.bytes_read::cpu.data            192                       # Number of bytes read from this memory
system.mem_ctrls1.bytes_read::switch_cpus.inst       115008                       # Number of bytes read from this memory
system.mem_ctrls1.bytes_read::switch_cpus.data      8077184                       # Number of bytes read from this memory
system.mem_ctrls1.bytes_read::switch_cpus_1.inst        14336                       # Number of bytes read from this memory
system.mem_ctrls1.bytes_read::switch_cpus_1.data      1377728                       # Number of bytes read from this memory
system.mem_ctrls1.bytes_read::total           9584576                       # Number of bytes read from this memory
system.mem_ctrls1.bytes_inst_read::cpu.inst          128                       # Number of instructions bytes read from this memory
system.mem_ctrls1.bytes_inst_read::switch_cpus.inst       115008                       # Number of instructions bytes read from this memory
system.mem_ctrls1.bytes_inst_read::switch_cpus_1.inst        14336                       # Number of instructions bytes read from this memory
system.mem_ctrls1.bytes_inst_read::total       129472                       # Number of instructions bytes read from this memory
system.mem_ctrls1.bytes_written::writebacks      5943424                       # Number of bytes written to this memory
system.mem_ctrls1.bytes_written::total        5943424                       # Number of bytes written to this memory
system.mem_ctrls1.num_reads::cpu.inst               2                       # Number of read requests responded to by this memory
system.mem_ctrls1.num_reads::cpu.data               3                       # Number of read requests responded to by this memory
system.mem_ctrls1.num_reads::switch_cpus.inst         1797                       # Number of read requests responded to by this memory
system.mem_ctrls1.num_reads::switch_cpus.data       126206                       # Number of read requests responded to by this memory
system.mem_ctrls1.num_reads::switch_cpus_1.inst          224                       # Number of read requests responded to by this memory
system.mem_ctrls1.num_reads::switch_cpus_1.data        21527                       # Number of read requests responded to by this memory
system.mem_ctrls1.num_reads::total             149759                       # Number of read requests responded to by this memory
system.mem_ctrls1.num_writes::writebacks        92866                       # Number of write requests responded to by this memory
system.mem_ctrls1.num_writes::total             92866                       # Number of write requests responded to by this memory
system.mem_ctrls1.bw_read::cpu.inst               115                       # Total read bandwidth from this memory (bytes/s)
system.mem_ctrls1.bw_read::cpu.data               172                       # Total read bandwidth from this memory (bytes/s)
system.mem_ctrls1.bw_read::switch_cpus.inst       103192                       # Total read bandwidth from this memory (bytes/s)
system.mem_ctrls1.bw_read::switch_cpus.data      7247300                       # Total read bandwidth from this memory (bytes/s)
system.mem_ctrls1.bw_read::switch_cpus_1.inst        12863                       # Total read bandwidth from this memory (bytes/s)
system.mem_ctrls1.bw_read::switch_cpus_1.data      1236174                       # Total read bandwidth from this memory (bytes/s)
system.mem_ctrls1.bw_read::total              8599816                       # Total read bandwidth from this memory (bytes/s)
system.mem_ctrls1.bw_inst_read::cpu.inst          115                       # Instruction read bandwidth from this memory (bytes/s)
system.mem_ctrls1.bw_inst_read::switch_cpus.inst       103192                       # Instruction read bandwidth from this memory (bytes/s)
system.mem_ctrls1.bw_inst_read::switch_cpus_1.inst        12863                       # Instruction read bandwidth from this memory (bytes/s)
system.mem_ctrls1.bw_inst_read::total          116170                       # Instruction read bandwidth from this memory (bytes/s)
system.mem_ctrls1.bw_write::writebacks        5332772                       # Write bandwidth from this memory (bytes/s)
system.mem_ctrls1.bw_write::total             5332772                       # Write bandwidth from this memory (bytes/s)
system.mem_ctrls1.bw_total::writebacks        5332772                       # Total bandwidth to/from this memory (bytes/s)
system.mem_ctrls1.bw_total::cpu.inst              115                       # Total bandwidth to/from this memory (bytes/s)
system.mem_ctrls1.bw_total::cpu.data              172                       # Total bandwidth to/from this memory (bytes/s)
system.mem_ctrls1.bw_total::switch_cpus.inst       103192                       # Total bandwidth to/from this memory (bytes/s)
system.mem_ctrls1.bw_total::switch_cpus.data      7247300                       # Total bandwidth to/from this memory (bytes/s)
system.mem_ctrls1.bw_total::switch_cpus_1.inst        12863                       # Total bandwidth to/from this memory (bytes/s)
system.mem_ctrls1.bw_total::switch_cpus_1.data      1236174                       # Total bandwidth to/from this memory (bytes/s)
system.mem_ctrls1.bw_total::total            13932588                       # Total bandwidth to/from this memory (bytes/s)
system.mem_ctrls1.readReqs                     149759                       # Number of read requests accepted
system.mem_ctrls1.writeReqs                     92866                       # Number of write requests accepted
system.mem_ctrls1.readBursts                   149759                       # Number of DRAM read bursts, including those serviced by the write queue
system.mem_ctrls1.writeBursts                   92866                       # Number of DRAM write bursts, including those merged in the write queue
system.mem_ctrls1.bytesReadDRAM               9578816                       # Total number of bytes read from DRAM
system.mem_ctrls1.bytesReadWrQ                   5760                       # Total number of bytes read from write queue
system.mem_ctrls1.bytesWritten                5942336                       # Total number of bytes written to DRAM
system.mem_ctrls1.bytesReadSys                9584576                       # Total read bytes from the system interface side
system.mem_ctrls1.bytesWrittenSys             5943424                       # Total written bytes from the system interface side
system.mem_ctrls1.servicedByWrQ                    90                       # Number of DRAM read bursts serviced by the write queue
system.mem_ctrls1.mergedWrBursts                    0                       # Number of DRAM write bursts merged with an existing one
system.mem_ctrls1.neitherReadNorWriteReqs            0                       # Number of requests that are neither read nor write
system.mem_ctrls1.perBankRdBursts::0             9075                       # Per bank write bursts
system.mem_ctrls1.perBankRdBursts::1             9364                       # Per bank write bursts
system.mem_ctrls1.perBankRdBursts::2             9498                       # Per bank write bursts
system.mem_ctrls1.perBankRdBursts::3             9815                       # Per bank write bursts
system.mem_ctrls1.perBankRdBursts::4             9742                       # Per bank write bursts
system.mem_ctrls1.perBankRdBursts::5             9651                       # Per bank write bursts
system.mem_ctrls1.perBankRdBursts::6             8840                       # Per bank write bursts
system.mem_ctrls1.perBankRdBursts::7             9133                       # Per bank write bursts
system.mem_ctrls1.perBankRdBursts::8             9539                       # Per bank write bursts
system.mem_ctrls1.perBankRdBursts::9             9769                       # Per bank write bursts
system.mem_ctrls1.perBankRdBursts::10            9247                       # Per bank write bursts
system.mem_ctrls1.perBankRdBursts::11            9647                       # Per bank write bursts
system.mem_ctrls1.perBankRdBursts::12            9400                       # Per bank write bursts
system.mem_ctrls1.perBankRdBursts::13            9196                       # Per bank write bursts
system.mem_ctrls1.perBankRdBursts::14            8859                       # Per bank write bursts
system.mem_ctrls1.perBankRdBursts::15            8894                       # Per bank write bursts
system.mem_ctrls1.perBankWrBursts::0             5832                       # Per bank write bursts
system.mem_ctrls1.perBankWrBursts::1             6050                       # Per bank write bursts
system.mem_ctrls1.perBankWrBursts::2             5927                       # Per bank write bursts
system.mem_ctrls1.perBankWrBursts::3             6102                       # Per bank write bursts
system.mem_ctrls1.perBankWrBursts::4             6026                       # Per bank write bursts
system.mem_ctrls1.perBankWrBursts::5             5918                       # Per bank write bursts
system.mem_ctrls1.perBankWrBursts::6             5338                       # Per bank write bursts
system.mem_ctrls1.perBankWrBursts::7             5494                       # Per bank write bursts
system.mem_ctrls1.perBankWrBursts::8             5496                       # Per bank write bursts
system.mem_ctrls1.perBankWrBursts::9             5636                       # Per bank write bursts
system.mem_ctrls1.perBankWrBursts::10            5883                       # Per bank write bursts
system.mem_ctrls1.perBankWrBursts::11            6335                       # Per bank write bursts
system.mem_ctrls1.perBankWrBursts::12            5979                       # Per bank write bursts
system.mem_ctrls1.perBankWrBursts::13            5665                       # Per bank write bursts
system.mem_ctrls1.perBankWrBursts::14            5505                       # Per bank write bursts
system.mem_ctrls1.perBankWrBursts::15            5663                       # Per bank write bursts
system.mem_ctrls1.numRdRetry                        0                       # Number of times read queue was full causing retry
system.mem_ctrls1.numWrRetry                        0                       # Number of times write queue was full causing retry
system.mem_ctrls1.totGap                 1114506986058                       # Total gap between requests
system.mem_ctrls1.readPktSize::0                    0                       # Read request sizes (log2)
system.mem_ctrls1.readPktSize::1                    0                       # Read request sizes (log2)
system.mem_ctrls1.readPktSize::2                    0                       # Read request sizes (log2)
system.mem_ctrls1.readPktSize::3                    0                       # Read request sizes (log2)
system.mem_ctrls1.readPktSize::4                    0                       # Read request sizes (log2)
system.mem_ctrls1.readPktSize::5                    0                       # Read request sizes (log2)
system.mem_ctrls1.readPktSize::6               149759                       # Read request sizes (log2)
system.mem_ctrls1.writePktSize::0                   0                       # Write request sizes (log2)
system.mem_ctrls1.writePktSize::1                   0                       # Write request sizes (log2)
system.mem_ctrls1.writePktSize::2                   0                       # Write request sizes (log2)
system.mem_ctrls1.writePktSize::3                   0                       # Write request sizes (log2)
system.mem_ctrls1.writePktSize::4                   0                       # Write request sizes (log2)
system.mem_ctrls1.writePktSize::5                   0                       # Write request sizes (log2)
system.mem_ctrls1.writePktSize::6               92866                       # Write request sizes (log2)
system.mem_ctrls1.rdQLenPdf::0                 147915                       # What read queue length does an incoming req see
system.mem_ctrls1.rdQLenPdf::1                   1716                       # What read queue length does an incoming req see
system.mem_ctrls1.rdQLenPdf::2                     37                       # What read queue length does an incoming req see
system.mem_ctrls1.rdQLenPdf::3                      1                       # What read queue length does an incoming req see
system.mem_ctrls1.rdQLenPdf::4                      0                       # What read queue length does an incoming req see
system.mem_ctrls1.rdQLenPdf::5                      0                       # What read queue length does an incoming req see
system.mem_ctrls1.rdQLenPdf::6                      0                       # What read queue length does an incoming req see
system.mem_ctrls1.rdQLenPdf::7                      0                       # What read queue length does an incoming req see
system.mem_ctrls1.rdQLenPdf::8                      0                       # What read queue length does an incoming req see
system.mem_ctrls1.rdQLenPdf::9                      0                       # What read queue length does an incoming req see
system.mem_ctrls1.rdQLenPdf::10                     0                       # What read queue length does an incoming req see
system.mem_ctrls1.rdQLenPdf::11                     0                       # What read queue length does an incoming req see
system.mem_ctrls1.rdQLenPdf::12                     0                       # What read queue length does an incoming req see
system.mem_ctrls1.rdQLenPdf::13                     0                       # What read queue length does an incoming req see
system.mem_ctrls1.rdQLenPdf::14                     0                       # What read queue length does an incoming req see
system.mem_ctrls1.rdQLenPdf::15                     0                       # What read queue length does an incoming req see
system.mem_ctrls1.rdQLenPdf::16                     0                       # What read queue length does an incoming req see
system.mem_ctrls1.rdQLenPdf::17                     0                       # What read queue length does an incoming req see
system.mem_ctrls1.rdQLenPdf::18                     0                       # What read queue length does an incoming req see
system.mem_ctrls1.rdQLenPdf::19                     0                       # What read queue length does an incoming req see
system.mem_ctrls1.rdQLenPdf::20                     0                       # What read queue length does an incoming req see
system.mem_ctrls1.rdQLenPdf::21                     0                       # What read queue length does an incoming req see
system.mem_ctrls1.rdQLenPdf::22                     0                       # What read queue length does an incoming req see
system.mem_ctrls1.rdQLenPdf::23                     0                       # What read queue length does an incoming req see
system.mem_ctrls1.rdQLenPdf::24                     0                       # What read queue length does an incoming req see
system.mem_ctrls1.rdQLenPdf::25                     0                       # What read queue length does an incoming req see
system.mem_ctrls1.rdQLenPdf::26                     0                       # What read queue length does an incoming req see
system.mem_ctrls1.rdQLenPdf::27                     0                       # What read queue length does an incoming req see
system.mem_ctrls1.rdQLenPdf::28                     0                       # What read queue length does an incoming req see
system.mem_ctrls1.rdQLenPdf::29                     0                       # What read queue length does an incoming req see
system.mem_ctrls1.rdQLenPdf::30                     0                       # What read queue length does an incoming req see
system.mem_ctrls1.rdQLenPdf::31                     0                       # What read queue length does an incoming req see
system.mem_ctrls1.wrQLenPdf::0                      2                       # What write queue length does an incoming req see
system.mem_ctrls1.wrQLenPdf::1                      2                       # What write queue length does an incoming req see
system.mem_ctrls1.wrQLenPdf::2                      2                       # What write queue length does an incoming req see
system.mem_ctrls1.wrQLenPdf::3                      2                       # What write queue length does an incoming req see
system.mem_ctrls1.wrQLenPdf::4                      2                       # What write queue length does an incoming req see
system.mem_ctrls1.wrQLenPdf::5                      2                       # What write queue length does an incoming req see
system.mem_ctrls1.wrQLenPdf::6                      2                       # What write queue length does an incoming req see
system.mem_ctrls1.wrQLenPdf::7                      2                       # What write queue length does an incoming req see
system.mem_ctrls1.wrQLenPdf::8                      2                       # What write queue length does an incoming req see
system.mem_ctrls1.wrQLenPdf::9                      2                       # What write queue length does an incoming req see
system.mem_ctrls1.wrQLenPdf::10                     2                       # What write queue length does an incoming req see
system.mem_ctrls1.wrQLenPdf::11                     2                       # What write queue length does an incoming req see
system.mem_ctrls1.wrQLenPdf::12                     2                       # What write queue length does an incoming req see
system.mem_ctrls1.wrQLenPdf::13                     2                       # What write queue length does an incoming req see
system.mem_ctrls1.wrQLenPdf::14                     2                       # What write queue length does an incoming req see
system.mem_ctrls1.wrQLenPdf::15                  4227                       # What write queue length does an incoming req see
system.mem_ctrls1.wrQLenPdf::16                  4290                       # What write queue length does an incoming req see
system.mem_ctrls1.wrQLenPdf::17                  5191                       # What write queue length does an incoming req see
system.mem_ctrls1.wrQLenPdf::18                  5265                       # What write queue length does an incoming req see
system.mem_ctrls1.wrQLenPdf::19                  5264                       # What write queue length does an incoming req see
system.mem_ctrls1.wrQLenPdf::20                  5278                       # What write queue length does an incoming req see
system.mem_ctrls1.wrQLenPdf::21                  5271                       # What write queue length does an incoming req see
system.mem_ctrls1.wrQLenPdf::22                  5278                       # What write queue length does an incoming req see
system.mem_ctrls1.wrQLenPdf::23                  5280                       # What write queue length does an incoming req see
system.mem_ctrls1.wrQLenPdf::24                  5264                       # What write queue length does an incoming req see
system.mem_ctrls1.wrQLenPdf::25                  5281                       # What write queue length does an incoming req see
system.mem_ctrls1.wrQLenPdf::26                  5294                       # What write queue length does an incoming req see
system.mem_ctrls1.wrQLenPdf::27                  5281                       # What write queue length does an incoming req see
system.mem_ctrls1.wrQLenPdf::28                  5266                       # What write queue length does an incoming req see
system.mem_ctrls1.wrQLenPdf::29                  5258                       # What write queue length does an incoming req see
system.mem_ctrls1.wrQLenPdf::30                  5253                       # What write queue length does an incoming req see
system.mem_ctrls1.wrQLenPdf::31                  5244                       # What write queue length does an incoming req see
system.mem_ctrls1.wrQLenPdf::32                  5242                       # What write queue length does an incoming req see
system.mem_ctrls1.wrQLenPdf::33                    88                       # What write queue length does an incoming req see
system.mem_ctrls1.wrQLenPdf::34                    16                       # What write queue length does an incoming req see
system.mem_ctrls1.wrQLenPdf::35                     3                       # What write queue length does an incoming req see
system.mem_ctrls1.wrQLenPdf::36                     2                       # What write queue length does an incoming req see
system.mem_ctrls1.wrQLenPdf::37                     0                       # What write queue length does an incoming req see
system.mem_ctrls1.wrQLenPdf::38                     0                       # What write queue length does an incoming req see
system.mem_ctrls1.wrQLenPdf::39                     0                       # What write queue length does an incoming req see
system.mem_ctrls1.wrQLenPdf::40                     0                       # What write queue length does an incoming req see
system.mem_ctrls1.wrQLenPdf::41                     0                       # What write queue length does an incoming req see
system.mem_ctrls1.wrQLenPdf::42                     0                       # What write queue length does an incoming req see
system.mem_ctrls1.wrQLenPdf::43                     0                       # What write queue length does an incoming req see
system.mem_ctrls1.wrQLenPdf::44                     0                       # What write queue length does an incoming req see
system.mem_ctrls1.wrQLenPdf::45                     0                       # What write queue length does an incoming req see
system.mem_ctrls1.wrQLenPdf::46                     0                       # What write queue length does an incoming req see
system.mem_ctrls1.wrQLenPdf::47                     0                       # What write queue length does an incoming req see
system.mem_ctrls1.wrQLenPdf::48                     0                       # What write queue length does an incoming req see
system.mem_ctrls1.wrQLenPdf::49                     0                       # What write queue length does an incoming req see
system.mem_ctrls1.wrQLenPdf::50                     0                       # What write queue length does an incoming req see
system.mem_ctrls1.wrQLenPdf::51                     0                       # What write queue length does an incoming req see
system.mem_ctrls1.wrQLenPdf::52                     0                       # What write queue length does an incoming req see
system.mem_ctrls1.wrQLenPdf::53                     0                       # What write queue length does an incoming req see
system.mem_ctrls1.wrQLenPdf::54                     0                       # What write queue length does an incoming req see
system.mem_ctrls1.wrQLenPdf::55                     0                       # What write queue length does an incoming req see
system.mem_ctrls1.wrQLenPdf::56                     0                       # What write queue length does an incoming req see
system.mem_ctrls1.wrQLenPdf::57                     0                       # What write queue length does an incoming req see
system.mem_ctrls1.wrQLenPdf::58                     0                       # What write queue length does an incoming req see
system.mem_ctrls1.wrQLenPdf::59                     0                       # What write queue length does an incoming req see
system.mem_ctrls1.wrQLenPdf::60                     0                       # What write queue length does an incoming req see
system.mem_ctrls1.wrQLenPdf::61                     0                       # What write queue length does an incoming req see
system.mem_ctrls1.wrQLenPdf::62                     0                       # What write queue length does an incoming req see
system.mem_ctrls1.wrQLenPdf::63                     0                       # What write queue length does an incoming req see
system.mem_ctrls1.bytesPerActivate::samples       212701                       # Bytes accessed per row activation
system.mem_ctrls1.bytesPerActivate::mean    72.969286                       # Bytes accessed per row activation
system.mem_ctrls1.bytesPerActivate::gmean    68.267682                       # Bytes accessed per row activation
system.mem_ctrls1.bytesPerActivate::stdev    56.214338                       # Bytes accessed per row activation
system.mem_ctrls1.bytesPerActivate::0-127       197798     92.99%     92.99% # Bytes accessed per row activation
system.mem_ctrls1.bytesPerActivate::128-255        12750      5.99%     98.99% # Bytes accessed per row activation
system.mem_ctrls1.bytesPerActivate::256-383          886      0.42%     99.40% # Bytes accessed per row activation
system.mem_ctrls1.bytesPerActivate::384-511          339      0.16%     99.56% # Bytes accessed per row activation
system.mem_ctrls1.bytesPerActivate::512-639          231      0.11%     99.67% # Bytes accessed per row activation
system.mem_ctrls1.bytesPerActivate::640-767          137      0.06%     99.74% # Bytes accessed per row activation
system.mem_ctrls1.bytesPerActivate::768-895          122      0.06%     99.79% # Bytes accessed per row activation
system.mem_ctrls1.bytesPerActivate::896-1023          218      0.10%     99.90% # Bytes accessed per row activation
system.mem_ctrls1.bytesPerActivate::1024-1151          220      0.10%    100.00% # Bytes accessed per row activation
system.mem_ctrls1.bytesPerActivate::total       212701                       # Bytes accessed per row activation
system.mem_ctrls1.rdPerTurnAround::samples         5243                       # Reads before turning the bus around for writes
system.mem_ctrls1.rdPerTurnAround::mean     28.546443                       # Reads before turning the bus around for writes
system.mem_ctrls1.rdPerTurnAround::stdev   357.774573                       # Reads before turning the bus around for writes
system.mem_ctrls1.rdPerTurnAround::0-1023         5242     99.98%     99.98% # Reads before turning the bus around for writes
system.mem_ctrls1.rdPerTurnAround::25600-26623            1      0.02%    100.00% # Reads before turning the bus around for writes
system.mem_ctrls1.rdPerTurnAround::total         5243                       # Reads before turning the bus around for writes
system.mem_ctrls1.wrPerTurnAround::samples         5243                       # Writes before turning the bus around for reads
system.mem_ctrls1.wrPerTurnAround::mean     17.709136                       # Writes before turning the bus around for reads
system.mem_ctrls1.wrPerTurnAround::gmean    17.685813                       # Writes before turning the bus around for reads
system.mem_ctrls1.wrPerTurnAround::stdev     0.899089                       # Writes before turning the bus around for reads
system.mem_ctrls1.wrPerTurnAround::16             972     18.54%     18.54% # Writes before turning the bus around for reads
system.mem_ctrls1.wrPerTurnAround::17              36      0.69%     19.23% # Writes before turning the bus around for reads
system.mem_ctrls1.wrPerTurnAround::18            3860     73.62%     92.85% # Writes before turning the bus around for reads
system.mem_ctrls1.wrPerTurnAround::19             324      6.18%     99.03% # Writes before turning the bus around for reads
system.mem_ctrls1.wrPerTurnAround::20              40      0.76%     99.79% # Writes before turning the bus around for reads
system.mem_ctrls1.wrPerTurnAround::21               5      0.10%     99.89% # Writes before turning the bus around for reads
system.mem_ctrls1.wrPerTurnAround::23               3      0.06%     99.94% # Writes before turning the bus around for reads
system.mem_ctrls1.wrPerTurnAround::24               2      0.04%     99.98% # Writes before turning the bus around for reads
system.mem_ctrls1.wrPerTurnAround::27               1      0.02%    100.00% # Writes before turning the bus around for reads
system.mem_ctrls1.wrPerTurnAround::total         5243                       # Writes before turning the bus around for reads
system.mem_ctrls1.totQLat                 27711927670                       # Total ticks spent queuing
system.mem_ctrls1.totMemAccLat            30518221420                       # Total ticks spent from burst creation until serviced by the DRAM
system.mem_ctrls1.totBusLat                 748345000                       # Total ticks spent in databus transfers
system.mem_ctrls1.avgQLat                   185154.76                       # Average queueing delay per DRAM burst
system.mem_ctrls1.avgBusLat                   5000.00                       # Average bus latency per DRAM burst
system.mem_ctrls1.avgMemAccLat              203904.76                       # Average memory access latency per DRAM burst
system.mem_ctrls1.avgRdBW                        8.59                       # Average DRAM read bandwidth in MiByte/s
system.mem_ctrls1.avgWrBW                        5.33                       # Average achieved write bandwidth in MiByte/s
system.mem_ctrls1.avgRdBWSys                     8.60                       # Average system read bandwidth in MiByte/s
system.mem_ctrls1.avgWrBWSys                     5.33                       # Average system write bandwidth in MiByte/s
system.mem_ctrls1.peakBW                     12800.00                       # Theoretical peak bandwidth in MiByte/s
system.mem_ctrls1.busUtil                        0.11                       # Data bus utilization in percentage
system.mem_ctrls1.busUtilRead                    0.07                       # Data bus utilization in percentage for reads
system.mem_ctrls1.busUtilWrite                   0.04                       # Data bus utilization in percentage for writes
system.mem_ctrls1.avgRdQLen                      1.00                       # Average read queue length when enqueuing
system.mem_ctrls1.avgWrQLen                     20.93                       # Average write queue length when enqueuing
system.mem_ctrls1.readRowHits                   20668                       # Number of row buffer hits during reads
system.mem_ctrls1.writeRowHits                   9141                       # Number of row buffer hits during writes
system.mem_ctrls1.readRowHitRate                13.81                       # Row buffer hit rate for reads
system.mem_ctrls1.writeRowHitRate                9.84                       # Row buffer hit rate for writes
system.mem_ctrls1.avgGap                   4593537.29                       # Average gap between requests
system.mem_ctrls1.pageHitRate                   12.29                       # Row buffer hit rate, read and write combined
system.mem_ctrls1_0.actEnergy               765322320                       # Energy for activate commands per rank (pJ)
system.mem_ctrls1_0.preEnergy               406763280                       # Energy for precharge commands per rank (pJ)
system.mem_ctrls1_0.readEnergy              536342520                       # Energy for read commands per rank (pJ)
system.mem_ctrls1_0.writeEnergy             243706140                       # Energy for write commands per rank (pJ)
system.mem_ctrls1_0.refreshEnergy        58363755840.000015                       # Energy for refresh commands per rank (pJ)
system.mem_ctrls1_0.actBackEnergy         20403836850                       # Energy for active background per rank (pJ)
system.mem_ctrls1_0.preBackEnergy          3409207680                       # Energy for precharge background per rank (pJ)
system.mem_ctrls1_0.actPowerDownEnergy   115565498730                       # Energy for active power-down per rank (pJ)
system.mem_ctrls1_0.prePowerDownEnergy    97025941920                       # Energy for precharge power-down per rank (pJ)
system.mem_ctrls1_0.selfRefreshEnergy    146836079355                       # Energy for self refresh per rank (pJ)
system.mem_ctrls1_0.totalEnergy          443580628095                       # Total energy per rank (pJ)
system.mem_ctrls1_0.averagePower           398.005280                       # Core power per rank (mW)
system.mem_ctrls1_0.totalIdleTime        1060831806795                       # Total Idle time Per DRAM Rank
system.mem_ctrls1_0.memoryStateTime::IDLE   6819368409                       # Time in different power states
system.mem_ctrls1_0.memoryStateTime::REF  24839742000                       # Time in different power states
system.mem_ctrls1_0.memoryStateTime::SREF 554727268086                       # Time in different power states
system.mem_ctrls1_0.memoryStateTime::PRE_PDN 252671758865                       # Time in different power states
system.mem_ctrls1_0.memoryStateTime::ACT  22018482771                       # Time in different power states
system.mem_ctrls1_0.memoryStateTime::ACT_PDN 253432779844                       # Time in different power states
system.mem_ctrls1_1.actEnergy               753419940                       # Energy for activate commands per rank (pJ)
system.mem_ctrls1_1.preEnergy               400437015                       # Energy for precharge commands per rank (pJ)
system.mem_ctrls1_1.readEnergy              532294140                       # Energy for read commands per rank (pJ)
system.mem_ctrls1_1.writeEnergy             240965640                       # Energy for write commands per rank (pJ)
system.mem_ctrls1_1.refreshEnergy        58254349920.000015                       # Energy for refresh commands per rank (pJ)
system.mem_ctrls1_1.actBackEnergy         20229040650                       # Energy for active background per rank (pJ)
system.mem_ctrls1_1.preBackEnergy          3418967520                       # Energy for precharge background per rank (pJ)
system.mem_ctrls1_1.actPowerDownEnergy   114755068740                       # Energy for active power-down per rank (pJ)
system.mem_ctrls1_1.prePowerDownEnergy    97117908000                       # Energy for precharge power-down per rank (pJ)
system.mem_ctrls1_1.selfRefreshEnergy    147330720330                       # Energy for self refresh per rank (pJ)
system.mem_ctrls1_1.totalEnergy          443058293955                       # Total energy per rank (pJ)
system.mem_ctrls1_1.averagePower           397.536612                       # Core power per rank (mW)
system.mem_ctrls1_1.totalIdleTime        1061187626677                       # Total Idle time Per DRAM Rank
system.mem_ctrls1_1.memoryStateTime::IDLE   6852245655                       # Time in different power states
system.mem_ctrls1_1.memoryStateTime::REF  24793972000                       # Time in different power states
system.mem_ctrls1_1.memoryStateTime::SREF 556620738086                       # Time in different power states
system.mem_ctrls1_1.memoryStateTime::PRE_PDN 252910949358                       # Time in different power states
system.mem_ctrls1_1.memoryStateTime::ACT  21675555643                       # Time in different power states
system.mem_ctrls1_1.memoryStateTime::ACT_PDN 251655939233                       # Time in different power states
system.pwrStateResidencyTicks::UNDEFINED 18767850790905                       # Cumulative time (in ticks) in various power states
system.cpu.branchPred.lookups                       3                       # Number of BP lookups
system.cpu.branchPred.condPredicted                 1                       # Number of conditional branches predicted
system.cpu.branchPred.condIncorrect                 1                       # Number of conditional branches incorrect
system.cpu.branchPred.BTBLookups                    2                       # Number of BTB lookups
system.cpu.branchPred.BTBHits                       0                       # Number of BTB hits
system.cpu.branchPred.BTBCorrect                    0                       # Number of correct BTB predictions (this stat may not work properly.
system.cpu.branchPred.BTBHitPct              0.000000                       # BTB Hit Percentage
system.cpu.branchPred.usedRAS                       0                       # Number of times the RAS was used to get a target.
system.cpu.branchPred.RASInCorrect                  0                       # Number of incorrect RAS predictions.
system.cpu.branchPred.indirectLookups               0                       # Number of indirect predictor lookups.
system.cpu.branchPred.indirectHits                  0                       # Number of indirect target hits.
system.cpu.branchPred.indirectMisses                0                       # Number of indirect misses.
system.cpu.branchPredindirectMispredicted            0                       # Number of mispredicted indirect branches.
system.cpu_voltage_domain.voltage                   1                       # Voltage in Volts
system.cpu_clk_domain.clock                       333                       # Clock period in ticks
system.cpu.dtb.fetch_hits                           0                       # ITB hits
system.cpu.dtb.fetch_misses                         0                       # ITB misses
system.cpu.dtb.fetch_acv                            0                       # ITB acv
system.cpu.dtb.fetch_accesses                       0                       # ITB accesses
system.cpu.dtb.read_hits                            3                       # DTB read hits
system.cpu.dtb.read_misses                          0                       # DTB read misses
system.cpu.dtb.read_acv                             0                       # DTB read access violations
system.cpu.dtb.read_accesses                        3                       # DTB read accesses
system.cpu.dtb.write_hits                          11                       # DTB write hits
system.cpu.dtb.write_misses                         0                       # DTB write misses
system.cpu.dtb.write_acv                            0                       # DTB write access violations
system.cpu.dtb.write_accesses                      11                       # DTB write accesses
system.cpu.dtb.data_hits                           14                       # DTB hits
system.cpu.dtb.data_misses                          0                       # DTB misses
system.cpu.dtb.data_acv                             0                       # DTB access violations
system.cpu.dtb.data_accesses                       14                       # DTB accesses
system.cpu.itb.fetch_hits                           6                       # ITB hits
system.cpu.itb.fetch_misses                         0                       # ITB misses
system.cpu.itb.fetch_acv                            0                       # ITB acv
system.cpu.itb.fetch_accesses                       6                       # ITB accesses
system.cpu.itb.read_hits                            0                       # DTB read hits
system.cpu.itb.read_misses                          0                       # DTB read misses
system.cpu.itb.read_acv                             0                       # DTB read access violations
system.cpu.itb.read_accesses                        0                       # DTB read accesses
system.cpu.itb.write_hits                           0                       # DTB write hits
system.cpu.itb.write_misses                         0                       # DTB write misses
system.cpu.itb.write_acv                            0                       # DTB write access violations
system.cpu.itb.write_accesses                       0                       # DTB write accesses
system.cpu.itb.data_hits                            0                       # DTB hits
system.cpu.itb.data_misses                          0                       # DTB misses
system.cpu.itb.data_acv                             0                       # DTB access violations
system.cpu.itb.data_accesses                        0                       # DTB accesses
system.cpu.workload.num_syscalls                    0                       # Number of system calls
system.cpu.pwrStateResidencyTicks::ON    1114509399975                       # Cumulative time (in ticks) in various power states
system.cpu.numCycles                             1100                       # number of cpu cycles simulated
system.cpu.numWorkItemsStarted                      0                       # number of work items this cpu started
system.cpu.numWorkItemsCompleted                    0                       # number of work items this cpu completed
system.cpu.fetch.icacheStallCycles                 63                       # Number of cycles fetch is stalled on an Icache miss
system.cpu.fetch.Insts                             31                       # Number of instructions fetch has processed
system.cpu.fetch.Branches                           3                       # Number of branches that fetch encountered
system.cpu.fetch.Cycles                             5                       # Number of cycles fetch has run and was not squashing or blocked
system.cpu.fetch.SquashCycles                       5                       # Number of cycles fetch has spent squashing
system.cpu.fetch.PendingDrainCycles                 8                       # Number of cycles fetch has spent waiting on pipes to drain
system.cpu.fetch.CacheLines                         6                       # Number of cache lines fetched
system.cpu.fetch.IcacheSquashes                     3                       # Number of outstanding Icache misses that were squashed
system.cpu.fetch.rateDist::samples                 78                       # Number of instructions fetched each cycle (Total)
system.cpu.fetch.rateDist::mean              0.397436                       # Number of instructions fetched each cycle (Total)
system.cpu.fetch.rateDist::stdev             1.646245                       # Number of instructions fetched each cycle (Total)
system.cpu.fetch.rateDist::underflows               0      0.00%      0.00% # Number of instructions fetched each cycle (Total)
system.cpu.fetch.rateDist::0                       73     93.59%     93.59% # Number of instructions fetched each cycle (Total)
system.cpu.fetch.rateDist::1                        0      0.00%     93.59% # Number of instructions fetched each cycle (Total)
system.cpu.fetch.rateDist::2                        1      1.28%     94.87% # Number of instructions fetched each cycle (Total)
system.cpu.fetch.rateDist::3                        0      0.00%     94.87% # Number of instructions fetched each cycle (Total)
system.cpu.fetch.rateDist::4                        0      0.00%     94.87% # Number of instructions fetched each cycle (Total)
system.cpu.fetch.rateDist::5                        1      1.28%     96.15% # Number of instructions fetched each cycle (Total)
system.cpu.fetch.rateDist::6                        0      0.00%     96.15% # Number of instructions fetched each cycle (Total)
[...]
system.switch_cpus_1.iq.int_inst_queue_writes    350268050                       # Number of integer instruction queue writes
system.switch_cpus_1.iq.int_inst_queue_wakeup_accesses    240860266                       # Number of integer instruction queue wakeup accesses
system.switch_cpus_1.iq.fp_inst_queue_reads      4181767                       # Number of floating instruction queue reads
system.switch_cpus_1.iq.fp_inst_queue_writes      2880970                       # Number of floating instruction queue writes
system.switch_cpus_1.iq.fp_inst_queue_wakeup_accesses      1991337                       # Number of floating instruction queue wakeup accesses
system.switch_cpus_1.iq.int_alu_accesses    258335193                       # Number of integer alu accesses
system.switch_cpus_1.iq.fp_alu_accesses       2116886                       # Number of floating point alu accesses
system.switch_cpus_1.iew.lsq.thread0.forwLoads      2611030                       # Number of loads that had data forwarded from stores
system.switch_cpus_1.iew.lsq.thread0.invAddrLoads            0                       # Number of loads ignored due to an invalid address
system.switch_cpus_1.iew.lsq.thread0.squashedLoads     17965137                       # Number of loads squashed
system.switch_cpus_1.iew.lsq.thread0.ignoredResponses        30885                       # Number of memory responses ignored because the instruction is squashed
system.switch_cpus_1.iew.lsq.thread0.memOrderViolation        35085                       # Number of memory ordering violations
system.switch_cpus_1.iew.lsq.thread0.squashedStores      5628235                       # Number of stores squashed
system.switch_cpus_1.iew.lsq.thread0.invAddrSwpfs            0                       # Number of software prefetches ignored due to an invalid address
system.switch_cpus_1.iew.lsq.thread0.blockedLoads            0                       # Number of blocked loads due to partial load-store forwarding
system.switch_cpus_1.iew.lsq.thread0.rescheduledLoads         9480                       # Number of loads that were rescheduled
system.switch_cpus_1.iew.lsq.thread0.cacheBlocked      1496748                       # Number of times an access to memory failed due to the cache being blocked
system.switch_cpus_1.iew.iewIdleCycles              0                       # Number of cycles IEW is idle
system.switch_cpus_1.iew.iewSquashCycles      3780077                       # Number of cycles IEW is squashing
system.switch_cpus_1.iew.iewBlockCycles      10754032                       # Number of cycles IEW is blocking
system.switch_cpus_1.iew.iewUnblockCycles      2188744                       # Number of cycles IEW is unblocking
system.switch_cpus_1.iew.iewDispatchedInsts    283396557                       # Number of instructions dispatched to IQ
system.switch_cpus_1.iew.iewDispSquashedInsts      1402052                       # Number of squashed instructions skipped by dispatch
system.switch_cpus_1.iew.iewDispLoadInsts     62086891                       # Number of dispatched load instructions
system.switch_cpus_1.iew.iewDispStoreInsts     27928080                       # Number of dispatched store instructions
system.switch_cpus_1.iew.iewDispNonSpecInsts          179                       # Number of dispatched non-speculative instructions
system.switch_cpus_1.iew.iewIQFullEvents        25181                       # Number of times the IQ has become full, causing a stall
system.switch_cpus_1.iew.iewLSQFullEvents      2117431                       # Number of times the LSQ has become full, causing a stall
system.switch_cpus_1.iew.memOrderViolationEvents        35085                       # Number of memory order violations
system.switch_cpus_1.iew.predictedTakenIncorrect      2205878                       # Number of branches that were predicted taken incorrectly
system.switch_cpus_1.iew.predictedNotTakenIncorrect      1990951                       # Number of branches that were predicted not taken incorrectly
system.switch_cpus_1.iew.branchMispredicts      4196829                       # Number of branch mispredicts detected at execute
system.switch_cpus_1.iew.iewExecutedInsts    248929816                       # Number of executed instructions
system.switch_cpus_1.iew.iewExecLoadInsts     57858094                       # Number of load instructions executed
system.switch_cpus_1.iew.iewExecSquashedInsts      6186549                       # Number of squashed instructions skipped in execute
system.switch_cpus_1.iew.exec_swp                   0                       # number of swp insts executed
system.switch_cpus_1.iew.exec_nop             6838211                       # number of nop insts executed
system.switch_cpus_1.iew.exec_refs           83065872                       # number of memory reference insts executed
system.switch_cpus_1.iew.exec_branches       36325093                       # Number of branches executed
system.switch_cpus_1.iew.exec_stores         25207778                       # Number of stores executed
system.switch_cpus_1.iew.exec_rate           1.416589                       # Inst execution rate
system.switch_cpus_1.iew.wb_sent            244476495                       # cumulative count of insts sent to commit
system.switch_cpus_1.iew.wb_count           242851603                       # cumulative count of insts written-back
system.switch_cpus_1.iew.wb_producers       136862842                       # num instructions producing a value
system.switch_cpus_1.iew.wb_consumers       173150694                       # num instructions consuming a value
system.switch_cpus_1.iew.wb_rate             1.382000                       # insts written-back per cycle
system.switch_cpus_1.iew.wb_fanout           0.790426                       # average fanout of values written-back
system.switch_cpus_1.commit.commitSquashedInsts     77072084                       # The number of squashed insts skipped by commit
system.switch_cpus_1.commit.commitNonSpecStalls          176                       # The number of times commit has been forced to stall to communicate backwards
system.switch_cpus_1.commit.branchMispredicts      3686429                       # The number of times a branch was mispredicted
system.switch_cpus_1.commit.committed_per_cycle::samples    155923616                       # Number of insts commited each cycle
system.switch_cpus_1.commit.committed_per_cycle::mean     1.317011                       # Number of insts commited each cycle
system.switch_cpus_1.commit.committed_per_cycle::stdev     2.370633                       # Number of insts commited each cycle
system.switch_cpus_1.commit.committed_per_cycle::underflows            0      0.00%      0.00% # Number of insts commited each cycle
system.switch_cpus_1.commit.committed_per_cycle::0     94694924     60.73%     60.73% # Number of insts commited each cycle
system.switch_cpus_1.commit.committed_per_cycle::1     25374752     16.27%     77.01% # Number of insts commited each cycle
system.switch_cpus_1.commit.committed_per_cycle::2      8763688      5.62%     82.63% # Number of insts commited each cycle
system.switch_cpus_1.commit.committed_per_cycle::3      5226143      3.35%     85.98% # Number of insts commited each cycle
system.switch_cpus_1.commit.committed_per_cycle::4      3425660      2.20%     88.17% # Number of insts commited each cycle
system.switch_cpus_1.commit.committed_per_cycle::5      2722701      1.75%     89.92% # Number of insts commited each cycle
system.switch_cpus_1.commit.committed_per_cycle::6      2310361      1.48%     91.40% # Number of insts commited each cycle
system.switch_cpus_1.commit.committed_per_cycle::7      1648857      1.06%     92.46% # Number of insts commited each cycle
system.switch_cpus_1.commit.committed_per_cycle::8     11756530      7.54%    100.00% # Number of insts commited each cycle
system.switch_cpus_1.commit.committed_per_cycle::overflows            0      0.00%    100.00% # Number of insts commited each cycle
system.switch_cpus_1.commit.committed_per_cycle::min_value            0                       # Number of insts commited each cycle
system.switch_cpus_1.commit.committed_per_cycle::max_value            8                       # Number of insts commited each cycle
system.switch_cpus_1.commit.committed_per_cycle::total    155923616                       # Number of insts commited each cycle
system.switch_cpus_1.commit.committedInsts    205353107                       # Number of instructions committed
system.switch_cpus_1.commit.committedOps    205353107                       # Number of ops (including micro ops) committed
system.switch_cpus_1.commit.swp_count               0                       # Number of s/w prefetches committed
system.switch_cpus_1.commit.refs             66421579                       # Number of memory references committed
system.switch_cpus_1.commit.loads            44121734                       # Number of loads committed
system.switch_cpus_1.commit.membars                88                       # Number of memory barriers committed
system.switch_cpus_1.commit.branches         30359423                       # Number of branches committed
system.switch_cpus_1.commit.fp_insts          1786208                       # Number of committed floating point instructions.
system.switch_cpus_1.commit.int_insts       197426184                       # Number of committed integer instructions.
system.switch_cpus_1.commit.function_calls      1752736                       # Number of function calls committed.
system.switch_cpus_1.commit.op_class_0::No_OpClass      5447375      2.65%      2.65% # Class of committed instruction
system.switch_cpus_1.commit.op_class_0::IntAlu    132113930     64.34%     66.99% # Class of committed instruction
system.switch_cpus_1.commit.op_class_0::IntMult        79596      0.04%     67.03% # Class of committed instruction
system.switch_cpus_1.commit.op_class_0::IntDiv            0      0.00%     67.03% # Class of committed instruction
system.switch_cpus_1.commit.op_class_0::FloatAdd       635244      0.31%     67.34% # Class of committed instruction
system.switch_cpus_1.commit.op_class_0::FloatCmp       335099      0.16%     67.50% # Class of committed instruction
system.switch_cpus_1.commit.op_class_0::FloatCvt       272825      0.13%     67.63% # Class of committed instruction
system.switch_cpus_1.commit.op_class_0::FloatMult            0      0.00%     67.63% # Class of committed instruction
system.switch_cpus_1.commit.op_class_0::FloatMultAcc            0      0.00%     67.63% # Class of committed instruction
system.switch_cpus_1.commit.op_class_0::FloatDiv        47371      0.02%     67.65% # Class of committed instruction
system.switch_cpus_1.commit.op_class_0::FloatMisc            0      0.00%     67.65% # Class of committed instruction
system.switch_cpus_1.commit.op_class_0::FloatSqrt            0      0.00%     67.65% # Class of committed instruction
system.switch_cpus_1.commit.op_class_0::SimdAdd            0      0.00%     67.65% # Class of committed instruction
system.switch_cpus_1.commit.op_class_0::SimdAddAcc            0      0.00%     67.65% # Class of committed instruction
system.switch_cpus_1.commit.op_class_0::SimdAlu            0      0.00%     67.65% # Class of committed instruction
system.switch_cpus_1.commit.op_class_0::SimdCmp            0      0.00%     67.65% # Class of committed instruction
system.switch_cpus_1.commit.op_class_0::SimdCvt            0      0.00%     67.65% # Class of committed instruction
system.switch_cpus_1.commit.op_class_0::SimdMisc            0      0.00%     67.65% # Class of committed instruction
system.switch_cpus_1.commit.op_class_0::SimdMult            0      0.00%     67.65% # Class of committed instruction
system.switch_cpus_1.commit.op_class_0::SimdMultAcc            0      0.00%     67.65% # Class of committed instruction
system.switch_cpus_1.commit.op_class_0::SimdShift            0      0.00%     67.65% # Class of committed instruction
system.switch_cpus_1.commit.op_class_0::SimdShiftAcc            0      0.00%     67.65% # Class of committed instruction
system.switch_cpus_1.commit.op_class_0::SimdSqrt            0      0.00%     67.65% # Class of committed instruction
system.switch_cpus_1.commit.op_class_0::SimdFloatAdd            0      0.00%     67.65% # Class of committed instruction
system.switch_cpus_1.commit.op_class_0::SimdFloatAlu            0      0.00%     67.65% # Class of committed instruction
system.switch_cpus_1.commit.op_class_0::SimdFloatCmp            0      0.00%     67.65% # Class of committed instruction
system.switch_cpus_1.commit.op_class_0::SimdFloatCvt            0      0.00%     67.65% # Class of committed instruction
system.switch_cpus_1.commit.op_class_0::SimdFloatDiv            0      0.00%     67.65% # Class of committed instruction
system.switch_cpus_1.commit.op_class_0::SimdFloatMisc            0      0.00%     67.65% # Class of committed instruction
system.switch_cpus_1.commit.op_class_0::SimdFloatMult            0      0.00%     67.65% # Class of committed instruction
system.switch_cpus_1.commit.op_class_0::SimdFloatMultAcc            0      0.00%     67.65% # Class of committed instruction
system.switch_cpus_1.commit.op_class_0::SimdFloatSqrt            0      0.00%     67.65% # Class of committed instruction
system.switch_cpus_1.commit.op_class_0::MemRead     43815278     21.34%     88.99% # Class of committed instruction
system.switch_cpus_1.commit.op_class_0::MemWrite     22110720     10.77%     99.76% # Class of committed instruction
system.switch_cpus_1.commit.op_class_0::FloatMemRead       306544      0.15%     99.91% # Class of committed instruction
system.switch_cpus_1.commit.op_class_0::FloatMemWrite       189125      0.09%    100.00% # Class of committed instruction
system.switch_cpus_1.commit.op_class_0::IprAccess            0      0.00%    100.00% # Class of committed instruction
system.switch_cpus_1.commit.op_class_0::InstPrefetch            0      0.00%    100.00% # Class of committed instruction
system.switch_cpus_1.commit.op_class_0::total    205353107                       # Class of committed instruction
system.switch_cpus_1.commit.bw_lim_events     11756530                       # number cycles where commit BW limit reached
system.switch_cpus_1.rob.rob_reads          425701790                       # The number of ROB reads
system.switch_cpus_1.rob.rob_writes         576789343                       # The number of ROB writes
system.switch_cpus_1.timesIdled               1010690                       # Number of times that the entire CPU went into an idle state and unscheduled itself
system.switch_cpus_1.idleCycles               7946496                       # Total number of cycles that the CPU has spent unscheduled due to idling
system.switch_cpus_1.committedInsts         200000006                       # Number of Instructions Simulated
system.switch_cpus_1.committedOps           200000006                       # Number of Ops (including micro ops) Simulated
system.switch_cpus_1.cpi                     0.878624                       # CPI: Cycles Per Instruction
system.switch_cpus_1.cpi_total               0.878624                       # CPI: Total CPI of All Threads
system.switch_cpus_1.ipc                     1.138144                       # IPC: Instructions Per Cycle
system.switch_cpus_1.ipc_total               1.138144                       # IPC: Total IPC of All Threads
system.switch_cpus_1.int_regfile_reads      333944266                       # number of integer regfile reads
system.switch_cpus_1.int_regfile_writes     183311585                       # number of integer regfile writes
system.switch_cpus_1.fp_regfile_reads         2122257                       # number of floating regfile reads
system.switch_cpus_1.fp_regfile_writes        1274579                       # number of floating regfile writes
system.switch_cpus_1.misc_regfile_reads         94472                       # number of misc regfile reads
system.switch_cpus_1.misc_regfile_writes        47313                       # number of misc regfile writes
system.tol3bus.snoop_filter.tot_requests      2929043                       # Total number of requests made to the snoop filter.
system.tol3bus.snoop_filter.hit_single_requests      1462483                       # Number of requests hitting in the snoop filter with a single holder of the requested data.
system.tol3bus.snoop_filter.hit_multi_requests            0                       # Number of requests hitting in the snoop filter with multiple (>1) holders of the requested data.
system.tol3bus.snoop_filter.tot_snoops           1082                       # Total number of snoops made to the snoop filter.
system.tol3bus.snoop_filter.hit_single_snoops         1082                       # Number of snoops hitting in the snoop filter with a single holder of the requested data.
system.tol3bus.snoop_filter.hit_multi_snoops            0                       # Number of snoops hitting in the snoop filter with multiple (>1) holders of the requested data.
system.tol3bus.pwrStateResidencyTicks::UNDEFINED 18767850790905                       # Cumulative time (in ticks) in various power states
system.tol3bus.trans_dist::ReadResp           1040740                       # Transaction distribution
system.tol3bus.trans_dist::WritebackDirty      1015766                       # Transaction distribution
system.tol3bus.trans_dist::CleanEvict          680440                       # Transaction distribution
system.tol3bus.trans_dist::ReadExReq           425820                       # Transaction distribution
system.tol3bus.trans_dist::ReadExResp          425820                       # Transaction distribution
system.tol3bus.trans_dist::ReadSharedReq      1040740                       # Transaction distribution
system.tol3bus.pkt_count_system.cpu.l2.mem_side::system.l3.cpu_side      4395603                       # Packet count per connected master and slave (bytes)
system.tol3bus.pkt_size_system.cpu.l2.mem_side::system.l3.cpu_side    146991232                       # Cumulative packet size per connected master and slave (bytes)
system.tol3bus.snoops                          233723                       # Total snoops (count)
system.tol3bus.snoopTraffic                  11877632                       # Total snoop traffic (bytes)
system.tol3bus.snoop_fanout::samples          1700283                       # Request fanout histogram
system.tol3bus.snoop_fanout::mean            0.000636                       # Request fanout histogram
system.tol3bus.snoop_fanout::stdev           0.025218                       # Request fanout histogram
system.tol3bus.snoop_fanout::underflows             0      0.00%      0.00% # Request fanout histogram
system.tol3bus.snoop_fanout::0                1699201     99.94%     99.94% # Request fanout histogram
system.tol3bus.snoop_fanout::1                   1082      0.06%    100.00% # Request fanout histogram
system.tol3bus.snoop_fanout::overflows              0      0.00%    100.00% # Request fanout histogram
system.tol3bus.snoop_fanout::min_value              0                       # Request fanout histogram
system.tol3bus.snoop_fanout::max_value              1                       # Request fanout histogram
system.tol3bus.snoop_fanout::total            1700283                       # Request fanout histogram
system.tol3bus.reqLayer0.occupancy         1251820593                       # Layer occupancy (ticks)
system.tol3bus.reqLayer0.utilization              0.1                       # Layer utilization (%)
system.tol3bus.respLayer0.occupancy         976728960                       # Layer occupancy (ticks)
system.tol3bus.respLayer0.utilization             0.1                       # Layer utilization (%)

---------- End Simulation Statistics   ----------
