
---------- Begin Simulation Statistics ----------
sim_seconds                                 17.697766                       # Number of seconds simulated
sim_ticks                                17697765924837                       # Number of ticks simulated
final_tick                               179779949087337                       # Number of ticks from beginning of simulation (restored from checkpoints and never reset)
sim_freq                                 1000000000000                       # Frequency of simulated ticks
host_inst_rate                                  38231                       # Simulator instruction rate (inst/s)
host_op_rate                                    38231                       # Simulator op (including micro ops) rate (op/s)
host_tick_rate                              563834685                       # Simulator tick rate (ticks/s)
host_mem_usage                                2689560                       # Number of bytes of host memory used
host_seconds                                 31388.22                       # Real time elapsed on the host
sim_insts                                  1200000012                       # Number of instructions simulated
sim_ops                                    1200000012                       # Number of ops (including micro ops) simulated
system.voltage_domain.voltage                       1                       # Voltage in Volts
system.clk_domain.clock                          1000                       # Clock period in ticks
system.mem_ctrls0.pwrStateResidencyTicks::UNDEFINED 179779949087337                       # Cumulative time (in ticks) in various power states
system.mem_ctrls0.bytes_read::cpu.inst            128                       # Number of bytes read from this memory
system.mem_ctrls0.bytes_read::switch_cpus.inst         1472                       # Number of bytes read from this memory
system.mem_ctrls0.bytes_read::switch_cpus.data   1819796160                       # Number of bytes read from this memory
system.mem_ctrls0.bytes_read::switch_cpus_1.inst          128                       # Number of bytes read from this memory
system.mem_ctrls0.bytes_read::switch_cpus_1.data    362638912                       # Number of bytes read from this memory
system.mem_ctrls0.bytes_read::total        2182436800                       # Number of bytes read from this memory
system.mem_ctrls0.bytes_inst_read::cpu.inst          128                       # Number of instructions bytes read from this memory
system.mem_ctrls0.bytes_inst_read::switch_cpus.inst         1472                       # Number of instructions bytes read from this memory
system.mem_ctrls0.bytes_inst_read::switch_cpus_1.inst          128                       # Number of instructions bytes read from this memory
system.mem_ctrls0.bytes_inst_read::total         1728                       # Number of instructions bytes read from this memory
system.mem_ctrls0.bytes_written::writebacks      3512384                       # Number of bytes written to this memory
system.mem_ctrls0.bytes_written::total        3512384                       # Number of bytes written to this memory
system.mem_ctrls0.num_reads::cpu.inst               2                       # Number of read requests responded to by this memory
system.mem_ctrls0.num_reads::switch_cpus.inst           23                       # Number of read requests responded to by this memory
system.mem_ctrls0.num_reads::switch_cpus.data     28434315                       # Number of read requests responded to by this memory
system.mem_ctrls0.num_reads::switch_cpus_1.inst            2                       # Number of read requests responded to by this memory
system.mem_ctrls0.num_reads::switch_cpus_1.data      5666233                       # Number of read requests responded to by this memory
system.mem_ctrls0.num_reads::total           34100575                       # Number of read requests responded to by this memory
system.mem_ctrls0.num_writes::writebacks        54881                       # Number of write requests responded to by this memory
system.mem_ctrls0.num_writes::total             54881                       # Number of write requests responded to by this memory
system.mem_ctrls0.bw_read::cpu.inst                 7                       # Total read bandwidth from this memory (bytes/s)
system.mem_ctrls0.bw_read::switch_cpus.inst           83                       # Total read bandwidth from this memory (bytes/s)
system.mem_ctrls0.bw_read::switch_cpus.data    102826321                       # Total read bandwidth from this memory (bytes/s)
system.mem_ctrls0.bw_read::switch_cpus_1.inst            7                       # Total read bandwidth from this memory (bytes/s)
system.mem_ctrls0.bw_read::switch_cpus_1.data     20490660                       # Total read bandwidth from this memory (bytes/s)
system.mem_ctrls0.bw_read::total            123317079                       # Total read bandwidth from this memory (bytes/s)
system.mem_ctrls0.bw_inst_read::cpu.inst            7                       # Instruction read bandwidth from this memory (bytes/s)
system.mem_ctrls0.bw_inst_read::switch_cpus.inst           83                       # Instruction read bandwidth from this memory (bytes/s)
system.mem_ctrls0.bw_inst_read::switch_cpus_1.inst            7                       # Instruction read bandwidth from this memory (bytes/s)
system.mem_ctrls0.bw_inst_read::total              98                       # Instruction read bandwidth from this memory (bytes/s)
system.mem_ctrls0.bw_write::writebacks         198465                       # Write bandwidth from this memory (bytes/s)
system.mem_ctrls0.bw_write::total              198465                       # Write bandwidth from this memory (bytes/s)
system.mem_ctrls0.bw_total::writebacks         198465                       # Total bandwidth to/from this memory (bytes/s)
system.mem_ctrls0.bw_total::cpu.inst                7                       # Total bandwidth to/from this memory (bytes/s)
system.mem_ctrls0.bw_total::switch_cpus.inst           83                       # Total bandwidth to/from this memory (bytes/s)
system.mem_ctrls0.bw_total::switch_cpus.data    102826321                       # Total bandwidth to/from this memory (bytes/s)
system.mem_ctrls0.bw_total::switch_cpus_1.inst            7                       # Total bandwidth to/from this memory (bytes/s)
system.mem_ctrls0.bw_total::switch_cpus_1.data     20490660                       # Total bandwidth to/from this memory (bytes/s)
system.mem_ctrls0.bw_total::total           123515544                       # Total bandwidth to/from this memory (bytes/s)
system.mem_ctrls0.readReqs                   34100575                       # Number of read requests accepted
system.mem_ctrls0.writeReqs                     54881                       # Number of write requests accepted
system.mem_ctrls0.readBursts                 34100575                       # Number of DRAM read bursts, including those serviced by the write queue
system.mem_ctrls0.writeBursts                   54881                       # Number of DRAM write bursts, including those merged in the write queue
system.mem_ctrls0.bytesReadDRAM            2182098432                       # Total number of bytes read from DRAM
system.mem_ctrls0.bytesReadWrQ                 338368                       # Total number of bytes read from write queue
system.mem_ctrls0.bytesWritten                3494016                       # Total number of bytes written to DRAM
system.mem_ctrls0.bytesReadSys             2182436800                       # Total read bytes from the system interface side
system.mem_ctrls0.bytesWrittenSys             3512384                       # Total written bytes from the system interface side
system.mem_ctrls0.servicedByWrQ                  5287                       # Number of DRAM read bursts serviced by the write queue
system.mem_ctrls0.mergedWrBursts                  261                       # Number of DRAM write bursts merged with an existing one
system.mem_ctrls0.neitherReadNorWriteReqs            0                       # Number of requests that are neither read nor write
system.mem_ctrls0.perBankRdBursts::0          2127493                       # Per bank write bursts
system.mem_ctrls0.perBankRdBursts::1          2128950                       # Per bank write bursts
system.mem_ctrls0.perBankRdBursts::2          2133141                       # Per bank write bursts
system.mem_ctrls0.perBankRdBursts::3          2128107                       # Per bank write bursts
system.mem_ctrls0.perBankRdBursts::4          2132284                       # Per bank write bursts
system.mem_ctrls0.perBankRdBursts::5          2126929                       # Per bank write bursts
system.mem_ctrls0.perBankRdBursts::6          2138143                       # Per bank write bursts
system.mem_ctrls0.perBankRdBursts::7          2130198                       # Per bank write bursts
system.mem_ctrls0.perBankRdBursts::8          2140173                       # Per bank write bursts
system.mem_ctrls0.perBankRdBursts::9          2133919                       # Per bank write bursts
system.mem_ctrls0.perBankRdBursts::10         2141145                       # Per bank write bursts
system.mem_ctrls0.perBankRdBursts::11         2131312                       # Per bank write bursts
system.mem_ctrls0.perBankRdBursts::12         2126322                       # Per bank write bursts
system.mem_ctrls0.perBankRdBursts::13         2124264                       # Per bank write bursts
system.mem_ctrls0.perBankRdBursts::14         2134706                       # Per bank write bursts
system.mem_ctrls0.perBankRdBursts::15         2118202                       # Per bank write bursts
system.mem_ctrls0.perBankWrBursts::0             3242                       # Per bank write bursts
system.mem_ctrls0.perBankWrBursts::1             3237                       # Per bank write bursts
system.mem_ctrls0.perBankWrBursts::2             3172                       # Per bank write bursts
system.mem_ctrls0.perBankWrBursts::3             4031                       # Per bank write bursts
system.mem_ctrls0.perBankWrBursts::4             4413                       # Per bank write bursts
system.mem_ctrls0.perBankWrBursts::5             3338                       # Per bank write bursts
system.mem_ctrls0.perBankWrBursts::6             3213                       # Per bank write bursts
system.mem_ctrls0.perBankWrBursts::7             3439                       # Per bank write bursts
system.mem_ctrls0.perBankWrBursts::8             3467                       # Per bank write bursts
system.mem_ctrls0.perBankWrBursts::9             3274                       # Per bank write bursts
system.mem_ctrls0.perBankWrBursts::10            3350                       # Per bank write bursts
system.mem_ctrls0.perBankWrBursts::11            3363                       # Per bank write bursts
system.mem_ctrls0.perBankWrBursts::12            3249                       # Per bank write bursts
system.mem_ctrls0.perBankWrBursts::13            3264                       # Per bank write bursts
system.mem_ctrls0.perBankWrBursts::14            3273                       # Per bank write bursts
system.mem_ctrls0.perBankWrBursts::15            3269                       # Per bank write bursts
system.mem_ctrls0.numRdRetry                        0                       # Number of times read queue was full causing retry
system.mem_ctrls0.numWrRetry                        0                       # Number of times write queue was full causing retry
system.mem_ctrls0.totGap                 17697764842677                       # Total gap between requests
system.mem_ctrls0.readPktSize::0                    0                       # Read request sizes (log2)
system.mem_ctrls0.readPktSize::1                    0                       # Read request sizes (log2)
system.mem_ctrls0.readPktSize::2                    0                       # Read request sizes (log2)
system.mem_ctrls0.readPktSize::3                    0                       # Read request sizes (log2)
system.mem_ctrls0.readPktSize::4                    0                       # Read request sizes (log2)
system.mem_ctrls0.readPktSize::5                    0                       # Read request sizes (log2)
system.mem_ctrls0.readPktSize::6             34100575                       # Read request sizes (log2)
system.mem_ctrls0.writePktSize::0                   0                       # Write request sizes (log2)
system.mem_ctrls0.writePktSize::1                   0                       # Write request sizes (log2)
system.mem_ctrls0.writePktSize::2                   0                       # Write request sizes (log2)
system.mem_ctrls0.writePktSize::3                   0                       # Write request sizes (log2)
system.mem_ctrls0.writePktSize::4                   0                       # Write request sizes (log2)
system.mem_ctrls0.writePktSize::5                   0                       # Write request sizes (log2)
system.mem_ctrls0.writePktSize::6               54881                       # Write request sizes (log2)
system.mem_ctrls0.rdQLenPdf::0               34094820                       # What read queue length does an incoming req see
system.mem_ctrls0.rdQLenPdf::1                    451                       # What read queue length does an incoming req see
system.mem_ctrls0.rdQLenPdf::2                     17                       # What read queue length does an incoming req see
system.mem_ctrls0.rdQLenPdf::3                      0                       # What read queue length does an incoming req see
system.mem_ctrls0.rdQLenPdf::4                      0                       # What read queue length does an incoming req see
system.mem_ctrls0.rdQLenPdf::5                      0                       # What read queue length does an incoming req see
system.mem_ctrls0.rdQLenPdf::6                      0                       # What read queue length does an incoming req see
system.mem_ctrls0.rdQLenPdf::7                      0                       # What read queue length does an incoming req see
system.mem_ctrls0.rdQLenPdf::8                      0                       # What read queue length does an incoming req see
system.mem_ctrls0.rdQLenPdf::9                      0                       # What read queue length does an incoming req see
system.mem_ctrls0.rdQLenPdf::10                     0                       # What read queue length does an incoming req see
system.mem_ctrls0.rdQLenPdf::11                     0                       # What read queue length does an incoming req see
system.mem_ctrls0.rdQLenPdf::12                     0                       # What read queue length does an incoming req see
system.mem_ctrls0.rdQLenPdf::13                     0                       # What read queue length does an incoming req see
system.mem_ctrls0.rdQLenPdf::14                     0                       # What read queue length does an incoming req see
system.mem_ctrls0.rdQLenPdf::15                     0                       # What read queue length does an incoming req see
system.mem_ctrls0.rdQLenPdf::16                     0                       # What read queue length does an incoming req see
system.mem_ctrls0.rdQLenPdf::17                     0                       # What read queue length does an incoming req see
system.mem_ctrls0.rdQLenPdf::18                     0                       # What read queue length does an incoming req see
system.mem_ctrls0.rdQLenPdf::19                     0                       # What read queue length does an incoming req see
system.mem_ctrls0.rdQLenPdf::20                     0                       # What read queue length does an incoming req see
system.mem_ctrls0.rdQLenPdf::21                     0                       # What read queue length does an incoming req see
system.mem_ctrls0.rdQLenPdf::22                     0                       # What read queue length does an incoming req see
system.mem_ctrls0.rdQLenPdf::23                     0                       # What read queue length does an incoming req see
system.mem_ctrls0.rdQLenPdf::24                     0                       # What read queue length does an incoming req see
system.mem_ctrls0.rdQLenPdf::25                     0                       # What read queue length does an incoming req see
system.mem_ctrls0.rdQLenPdf::26                     0                       # What read queue length does an incoming req see
system.mem_ctrls0.rdQLenPdf::27                     0                       # What read queue length does an incoming req see
system.mem_ctrls0.rdQLenPdf::28                     0                       # What read queue length does an incoming req see
system.mem_ctrls0.rdQLenPdf::29                     0                       # What read queue length does an incoming req see
system.mem_ctrls0.rdQLenPdf::30                     0                       # What read queue length does an incoming req see
system.mem_ctrls0.rdQLenPdf::31                     0                       # What read queue length does an incoming req see
system.mem_ctrls0.wrQLenPdf::0                      2                       # What write queue length does an incoming req see
system.mem_ctrls0.wrQLenPdf::1                      2                       # What write queue length does an incoming req see
system.mem_ctrls0.wrQLenPdf::2                      2                       # What write queue length does an incoming req see
system.mem_ctrls0.wrQLenPdf::3                      2                       # What write queue length does an incoming req see
system.mem_ctrls0.wrQLenPdf::4                      2                       # What write queue length does an incoming req see
system.mem_ctrls0.wrQLenPdf::5                      2                       # What write queue length does an incoming req see
system.mem_ctrls0.wrQLenPdf::6                      2                       # What write queue length does an incoming req see
system.mem_ctrls0.wrQLenPdf::7                      2                       # What write queue length does an incoming req see
system.mem_ctrls0.wrQLenPdf::8                      2                       # What write queue length does an incoming req see
system.mem_ctrls0.wrQLenPdf::9                      2                       # What write queue length does an incoming req see
system.mem_ctrls0.wrQLenPdf::10                     2                       # What write queue length does an incoming req see
system.mem_ctrls0.wrQLenPdf::11                     2                       # What write queue length does an incoming req see
system.mem_ctrls0.wrQLenPdf::12                     2                       # What write queue length does an incoming req see
system.mem_ctrls0.wrQLenPdf::13                     2                       # What write queue length does an incoming req see
system.mem_ctrls0.wrQLenPdf::14                     2                       # What write queue length does an incoming req see
system.mem_ctrls0.wrQLenPdf::15                  2877                       # What write queue length does an incoming req see
system.mem_ctrls0.wrQLenPdf::16                  2935                       # What write queue length does an incoming req see
system.mem_ctrls0.wrQLenPdf::17                  3048                       # What write queue length does an incoming req see
system.mem_ctrls0.wrQLenPdf::18                  3049                       # What write queue length does an incoming req see
system.mem_ctrls0.wrQLenPdf::19                  3049                       # What write queue length does an incoming req see
system.mem_ctrls0.wrQLenPdf::20                  3049                       # What write queue length does an incoming req see
system.mem_ctrls0.wrQLenPdf::21                  3050                       # What write queue length does an incoming req see
system.mem_ctrls0.wrQLenPdf::22                  3050                       # What write queue length does an incoming req see
system.mem_ctrls0.wrQLenPdf::23                  3055                       # What write queue length does an incoming req see
system.mem_ctrls0.wrQLenPdf::24                  3049                       # What write queue length does an incoming req see
system.mem_ctrls0.wrQLenPdf::25                  3049                       # What write queue length does an incoming req see
system.mem_ctrls0.wrQLenPdf::26                  3048                       # What write queue length does an incoming req see
system.mem_ctrls0.wrQLenPdf::27                  3047                       # What write queue length does an incoming req see
system.mem_ctrls0.wrQLenPdf::28                  3047                       # What write queue length does an incoming req see
system.mem_ctrls0.wrQLenPdf::29                  3047                       # What write queue length does an incoming req see
system.mem_ctrls0.wrQLenPdf::30                  3047                       # What write queue length does an incoming req see
system.mem_ctrls0.wrQLenPdf::31                  3047                       # What write queue length does an incoming req see
system.mem_ctrls0.wrQLenPdf::32                  3047                       # What write queue length does an incoming req see
system.mem_ctrls0.wrQLenPdf::33                     0                       # What write queue length does an incoming req see
system.mem_ctrls0.wrQLenPdf::34                     0                       # What write queue length does an incoming req see
system.mem_ctrls0.wrQLenPdf::35                     0                       # What write queue length does an incoming req see
system.mem_ctrls0.wrQLenPdf::36                     0                       # What write queue length does an incoming req see
system.mem_ctrls0.wrQLenPdf::37                     0                       # What write queue length does an incoming req see
system.mem_ctrls0.wrQLenPdf::38                     0                       # What write queue length does an incoming req see
system.mem_ctrls0.wrQLenPdf::39                     0                       # What write queue length does an incoming req see
system.mem_ctrls0.wrQLenPdf::40                     0                       # What write queue length does an incoming req see
system.mem_ctrls0.wrQLenPdf::41                     0                       # What write queue length does an incoming req see
system.mem_ctrls0.wrQLenPdf::42                     0                       # What write queue length does an incoming req see
system.mem_ctrls0.wrQLenPdf::43                     0                       # What write queue length does an incoming req see
system.mem_ctrls0.wrQLenPdf::44                     0                       # What write queue length does an incoming req see
system.mem_ctrls0.wrQLenPdf::45                     0                       # What write queue length does an incoming req see
system.mem_ctrls0.wrQLenPdf::46                     0                       # What write queue length does an incoming req see
system.mem_ctrls0.wrQLenPdf::47                     0                       # What write queue length does an incoming req see
system.mem_ctrls0.wrQLenPdf::48                     0                       # What write queue length does an incoming req see
system.mem_ctrls0.wrQLenPdf::49                     0                       # What write queue length does an incoming req see
system.mem_ctrls0.wrQLenPdf::50                     0                       # What write queue length does an incoming req see
system.mem_ctrls0.wrQLenPdf::51                     0                       # What write queue length does an incoming req see
system.mem_ctrls0.wrQLenPdf::52                     0                       # What write queue length does an incoming req see
system.mem_ctrls0.wrQLenPdf::53                     0                       # What write queue length does an incoming req see
system.mem_ctrls0.wrQLenPdf::54                     0                       # What write queue length does an incoming req see
system.mem_ctrls0.wrQLenPdf::55                     0                       # What write queue length does an incoming req see
system.mem_ctrls0.wrQLenPdf::56                     0                       # What write queue length does an incoming req see
system.mem_ctrls0.wrQLenPdf::57                     0                       # What write queue length does an incoming req see
system.mem_ctrls0.wrQLenPdf::58                     0                       # What write queue length does an incoming req see
system.mem_ctrls0.wrQLenPdf::59                     0                       # What write queue length does an incoming req see
system.mem_ctrls0.wrQLenPdf::60                     0                       # What write queue length does an incoming req see
system.mem_ctrls0.wrQLenPdf::61                     0                       # What write queue length does an incoming req see
system.mem_ctrls0.wrQLenPdf::62                     0                       # What write queue length does an incoming req see
system.mem_ctrls0.wrQLenPdf::63                     0                       # What write queue length does an incoming req see
system.mem_ctrls0.bytesPerActivate::samples     34100040                       # Bytes accessed per row activation
system.mem_ctrls0.bytesPerActivate::mean    64.093524                       # Bytes accessed per row activation
system.mem_ctrls0.bytesPerActivate::gmean    64.054213                       # Bytes accessed per row activation
system.mem_ctrls0.bytesPerActivate::stdev     3.606293                       # Bytes accessed per row activation
system.mem_ctrls0.bytesPerActivate::64-127     34066050     99.90%     99.90% # Bytes accessed per row activation
system.mem_ctrls0.bytesPerActivate::128-191        24934      0.07%     99.97% # Bytes accessed per row activation
system.mem_ctrls0.bytesPerActivate::192-255         5454      0.02%     99.99% # Bytes accessed per row activation
system.mem_ctrls0.bytesPerActivate::256-319         2026      0.01%    100.00% # Bytes accessed per row activation
system.mem_ctrls0.bytesPerActivate::320-383          803      0.00%    100.00% # Bytes accessed per row activation
system.mem_ctrls0.bytesPerActivate::384-447          379      0.00%    100.00% # Bytes accessed per row activation
system.mem_ctrls0.bytesPerActivate::448-511          199      0.00%    100.00% # Bytes accessed per row activation
system.mem_ctrls0.bytesPerActivate::512-575           95      0.00%    100.00% # Bytes accessed per row activation
system.mem_ctrls0.bytesPerActivate::576-639           40      0.00%    100.00% # Bytes accessed per row activation
system.mem_ctrls0.bytesPerActivate::640-703           26      0.00%    100.00% # Bytes accessed per row activation
system.mem_ctrls0.bytesPerActivate::704-767            9      0.00%    100.00% # Bytes accessed per row activation
system.mem_ctrls0.bytesPerActivate::768-831           10      0.00%    100.00% # Bytes accessed per row activation
system.mem_ctrls0.bytesPerActivate::832-895            8      0.00%    100.00% # Bytes accessed per row activation
system.mem_ctrls0.bytesPerActivate::896-959            3      0.00%    100.00% # Bytes accessed per row activation
system.mem_ctrls0.bytesPerActivate::960-1023            4      0.00%    100.00% # Bytes accessed per row activation
system.mem_ctrls0.bytesPerActivate::total     34100040                       # Bytes accessed per row activation
system.mem_ctrls0.rdPerTurnAround::samples         3048                       # Reads before turning the bus around for writes
system.mem_ctrls0.rdPerTurnAround::mean  11160.914042                       # Reads before turning the bus around for writes
system.mem_ctrls0.rdPerTurnAround::gmean   275.587301                       # Reads before turning the bus around for writes
system.mem_ctrls0.rdPerTurnAround::stdev 61531.300526                       # Reads before turning the bus around for writes
system.mem_ctrls0.rdPerTurnAround::0-65535         2939     96.42%     96.42% # Reads before turning the bus around for writes
system.mem_ctrls0.rdPerTurnAround::65536-131071           49      1.61%     98.03% # Reads before turning the bus around for writes
system.mem_ctrls0.rdPerTurnAround::131072-196607           19      0.62%     98.65% # Reads before turning the bus around for writes
system.mem_ctrls0.rdPerTurnAround::196608-262143           10      0.33%     98.98% # Reads before turning the bus around for writes
system.mem_ctrls0.rdPerTurnAround::262144-327679            3      0.10%     99.08% # Reads before turning the bus around for writes
system.mem_ctrls0.rdPerTurnAround::327680-393215            2      0.07%     99.15% # Reads before turning the bus around for writes
system.mem_ctrls0.rdPerTurnAround::393216-458751            6      0.20%     99.34% # Reads before turning the bus around for writes
system.mem_ctrls0.rdPerTurnAround::458752-524287            6      0.20%     99.54% # Reads before turning the bus around for writes
system.mem_ctrls0.rdPerTurnAround::524288-589823            3      0.10%     99.64% # Reads before turning the bus around for writes
system.mem_ctrls0.rdPerTurnAround::589824-655359            7      0.23%     99.87% # Reads before turning the bus around for writes
system.mem_ctrls0.rdPerTurnAround::655360-720895            1      0.03%     99.90% # Reads before turning the bus around for writes
system.mem_ctrls0.rdPerTurnAround::786432-851967            1      0.03%     99.93% # Reads before turning the bus around for writes
system.mem_ctrls0.rdPerTurnAround::983040-1.04858e+06            1      0.03%     99.97% # Reads before turning the bus around for writes
system.mem_ctrls0.rdPerTurnAround::1.17965e+06-1.24518e+06            1      0.03%    100.00% # Reads before turning the bus around for writes
system.mem_ctrls0.rdPerTurnAround::total         3048                       # Reads before turning the bus around for writes
system.mem_ctrls0.wrPerTurnAround::samples         3048                       # Writes before turning the bus around for reads
system.mem_ctrls0.wrPerTurnAround::mean     17.911417                       # Writes before turning the bus around for reads
system.mem_ctrls0.wrPerTurnAround::gmean    17.905963                       # Writes before turning the bus around for reads
system.mem_ctrls0.wrPerTurnAround::stdev     0.434817                       # Writes before turning the bus around for reads
system.mem_ctrls0.wrPerTurnAround::16             118      3.87%      3.87% # Writes before turning the bus around for reads
system.mem_ctrls0.wrPerTurnAround::17              53      1.74%      5.61% # Writes before turning the bus around for reads
system.mem_ctrls0.wrPerTurnAround::18            2865     94.00%     99.61% # Writes before turning the bus around for reads
system.mem_ctrls0.wrPerTurnAround::19              11      0.36%     99.97% # Writes before turning the bus around for reads
system.mem_ctrls0.wrPerTurnAround::26               1      0.03%    100.00% # Writes before turning the bus around for reads
system.mem_ctrls0.wrPerTurnAround::total         3048                       # Writes before turning the bus around for reads
system.mem_ctrls0.totQLat                967169529252                       # Total ticks spent queuing
system.mem_ctrls0.totMemAccLat           1606456179252                       # Total ticks spent from burst creation until serviced by the DRAM
system.mem_ctrls0.totBusLat              170476440000                       # Total ticks spent in databus transfers
system.mem_ctrls0.avgQLat                    28366.66                       # Average queueing delay per DRAM burst
system.mem_ctrls0.avgBusLat                   5000.00                       # Average bus latency per DRAM burst
system.mem_ctrls0.avgMemAccLat               47116.66                       # Average memory access latency per DRAM burst
system.mem_ctrls0.avgRdBW                      123.30                       # Average DRAM read bandwidth in MiByte/s
system.mem_ctrls0.avgWrBW                        0.20                       # Average achieved write bandwidth in MiByte/s
system.mem_ctrls0.avgRdBWSys                   123.32                       # Average system read bandwidth in MiByte/s
system.mem_ctrls0.avgWrBWSys                     0.20                       # Average system write bandwidth in MiByte/s
system.mem_ctrls0.peakBW                     12800.00                       # Theoretical peak bandwidth in MiByte/s
system.mem_ctrls0.busUtil                        0.96                       # Data bus utilization in percentage
system.mem_ctrls0.busUtilRead                    0.96                       # Data bus utilization in percentage for reads
system.mem_ctrls0.busUtilWrite                   0.00                       # Data bus utilization in percentage for writes
system.mem_ctrls0.avgRdQLen                      1.00                       # Average read queue length when enqueuing
system.mem_ctrls0.avgWrQLen                     24.24                       # Average write queue length when enqueuing
system.mem_ctrls0.readRowHits                   42201                       # Number of row buffer hits during reads
system.mem_ctrls0.writeRowHits                   7630                       # Number of row buffer hits during writes
system.mem_ctrls0.readRowHitRate                 0.12                       # Row buffer hit rate for reads
system.mem_ctrls0.writeRowHitRate               13.97                       # Row buffer hit rate for writes
system.mem_ctrls0.avgGap                    518153.38                       # Average gap between requests
system.mem_ctrls0.pageHitRate                    0.15                       # Row buffer hit rate, read and write combined
system.mem_ctrls0_0.actEnergy            121720299540                       # Energy for activate commands per rank (pJ)
system.mem_ctrls0_0.preEnergy             64695850725                       # Energy for precharge commands per rank (pJ)
system.mem_ctrls0_0.readEnergy           121703049300                       # Energy for read commands per rank (pJ)
system.mem_ctrls0_0.writeEnergy             146603700                       # Energy for write commands per rank (pJ)
system.mem_ctrls0_0.refreshEnergy        1397071188240.000244                       # Energy for refresh commands per rank (pJ)
system.mem_ctrls0_0.actBackEnergy        582197035560                       # Energy for active background per rank (pJ)
system.mem_ctrls0_0.preBackEnergy         31661652480                       # Energy for precharge background per rank (pJ)
system.mem_ctrls0_0.actPowerDownEnergy   6827753295210                       # Energy for active power-down per rank (pJ)
system.mem_ctrls0_0.prePowerDownEnergy   523948478880                       # Energy for precharge power-down per rank (pJ)
system.mem_ctrls0_0.selfRefreshEnergy       332076345                       # Energy for self refresh per rank (pJ)
system.mem_ctrls0_0.totalEnergy          9671229901230                       # Total energy per rank (pJ)
system.mem_ctrls0_0.averagePower           546.466144                       # Core power per rank (mW)
system.mem_ctrls0_0.totalIdleTime        16336953524405                       # Total Idle time Per DRAM Rank
system.mem_ctrls0_0.memoryStateTime::IDLE  13566200479                       # Time in different power states
system.mem_ctrls0_0.memoryStateTime::REF 590978770000                       # Time in different power states
system.mem_ctrls0_0.memoryStateTime::SREF    972637584                       # Time in different power states
system.mem_ctrls0_0.memoryStateTime::PRE_PDN 1363794489289                       # Time in different power states
system.mem_ctrls0_0.memoryStateTime::ACT 756266712876                       # Time in different power states
system.mem_ctrls0_0.memoryStateTime::ACT_PDN 14972187114609                       # Time in different power states
system.mem_ctrls0_1.actEnergy            121754064600                       # Energy for activate commands per rank (pJ)
system.mem_ctrls0_1.preEnergy             64713801075                       # Energy for precharge commands per rank (pJ)
system.mem_ctrls0_1.readEnergy           121737307020                       # Energy for read commands per rank (pJ)
system.mem_ctrls0_1.writeEnergy             138376980                       # Energy for write commands per rank (pJ)
system.mem_ctrls0_1.refreshEnergy        1397068115040.000244                       # Energy for refresh commands per rank (pJ)
system.mem_ctrls0_1.actBackEnergy        582860895750                       # Energy for active background per rank (pJ)
system.mem_ctrls0_1.preBackEnergy         31616060160                       # Energy for precharge background per rank (pJ)
system.mem_ctrls0_1.actPowerDownEnergy   6839080083840                       # Energy for active power-down per rank (pJ)
system.mem_ctrls0_1.prePowerDownEnergy   513806098560                       # Energy for precharge power-down per rank (pJ)
system.mem_ctrls0_1.selfRefreshEnergy       403660335                       # Energy for self refresh per rank (pJ)
system.mem_ctrls0_1.totalEnergy          9673179047520                       # Total energy per rank (pJ)
system.mem_ctrls0_1.averagePower           546.576279                       # Core power per rank (mW)
system.mem_ctrls0_1.totalIdleTime        16336755096926                       # Total Idle time Per DRAM Rank
system.mem_ctrls0_1.memoryStateTime::IDLE  13554118710                       # Time in different power states
system.mem_ctrls0_1.memoryStateTime::REF 590977680000                       # Time in different power states
system.mem_ctrls0_1.memoryStateTime::SREF   1208071504                       # Time in different power states
system.mem_ctrls0_1.memoryStateTime::PRE_PDN 1337617934916                       # Time in different power states
system.mem_ctrls0_1.memoryStateTime::ACT 756477771332                       # Time in different power states
system.mem_ctrls0_1.memoryStateTime::ACT_PDN 14997930348375                       # Time in different power states
system.mem_ctrls1.pwrStateResidencyTicks::UNDEFINED 179779949087337                       # Cumulative time (in ticks) in various power states
system.mem_ctrls1.bytes_read::cpu.inst            128                       # Number of bytes read from this memory
system.mem_ctrls1.bytes_read::cpu.data             64                       # Number of bytes read from this memory
system.mem_ctrls1.bytes_read::switch_cpus.inst         1088                       # Number of bytes read from this memory
system.mem_ctrls1.bytes_read::switch_cpus.data   1820468992                       # Number of bytes read from this memory
system.mem_ctrls1.bytes_read::switch_cpus_1.inst          320                       # Number of bytes read from this memory
system.mem_ctrls1.bytes_read::switch_cpus_1.data    362817664                       # Number of bytes read from this memory
system.mem_ctrls1.bytes_read::total        2183288256                       # Number of bytes read from this memory
system.mem_ctrls1.bytes_inst_read::cpu.inst          128                       # Number of instructions bytes read from this memory
system.mem_ctrls1.bytes_inst_read::switch_cpus.inst         1088                       # Number of instructions bytes read from this memory
system.mem_ctrls1.bytes_inst_read::switch_cpus_1.inst          320                       # Number of instructions bytes read from this memory
system.mem_ctrls1.bytes_inst_read::total         1536                       # Number of instructions bytes read from this memory
system.mem_ctrls1.bytes_written::writebacks      3545472                       # Number of bytes written to this memory
system.mem_ctrls1.bytes_written::total        3545472                       # Number of bytes written to this memory
system.mem_ctrls1.num_reads::cpu.inst               2                       # Number of read requests responded to by this memory
system.mem_ctrls1.num_reads::cpu.data               1                       # Number of read requests responded to by this memory
system.mem_ctrls1.num_reads::switch_cpus.inst           17                       # Number of read requests responded to by this memory
system.mem_ctrls1.num_reads::switch_cpus.data     28444828                       # Number of read requests responded to by this memory
system.mem_ctrls1.num_reads::switch_cpus_1.inst            5                       # Number of read requests responded to by this memory
system.mem_ctrls1.num_reads::switch_cpus_1.data      5669026                       # Number of read requests responded to by this memory
system.mem_ctrls1.num_reads::total           34113879                       # Number of read requests responded to by this memory
system.mem_ctrls1.num_writes::writebacks        55398                       # Number of write requests responded to by this memory
system.mem_ctrls1.num_writes::total             55398                       # Number of write requests responded to by this memory
system.mem_ctrls1.bw_read::cpu.inst                 7                       # Total read bandwidth from this memory (bytes/s)
system.mem_ctrls1.bw_read::cpu.data                 4                       # Total read bandwidth from this memory (bytes/s)
system.mem_ctrls1.bw_read::switch_cpus.inst           61                       # Total read bandwidth from this memory (bytes/s)
system.mem_ctrls1.bw_read::switch_cpus.data    102864339                       # Total read bandwidth from this memory (bytes/s)
system.mem_ctrls1.bw_read::switch_cpus_1.inst           18                       # Total read bandwidth from this memory (bytes/s)
system.mem_ctrls1.bw_read::switch_cpus_1.data     20500761                       # Total read bandwidth from this memory (bytes/s)
system.mem_ctrls1.bw_read::total            123365190                       # Total read bandwidth from this memory (bytes/s)
system.mem_ctrls1.bw_inst_read::cpu.inst            7                       # Instruction read bandwidth from this memory (bytes/s)
system.mem_ctrls1.bw_inst_read::switch_cpus.inst           61                       # Instruction read bandwidth from this memory (bytes/s)
system.mem_ctrls1.bw_inst_read::switch_cpus_1.inst           18                       # Instruction read bandwidth from this memory (bytes/s)
system.mem_ctrls1.bw_inst_read::total              87                       # Instruction read bandwidth from this memory (bytes/s)
system.mem_ctrls1.bw_write::writebacks         200334                       # Write bandwidth from this memory (bytes/s)
system.mem_ctrls1.bw_write::total              200334                       # Write bandwidth from this memory (bytes/s)
system.mem_ctrls1.bw_total::writebacks         200334                       # Total bandwidth to/from this memory (bytes/s)
system.mem_ctrls1.bw_total::cpu.inst                7                       # Total bandwidth to/from this memory (bytes/s)
system.mem_ctrls1.bw_total::cpu.data                4                       # Total bandwidth to/from this memory (bytes/s)
system.mem_ctrls1.bw_total::switch_cpus.inst           61                       # Total bandwidth to/from this memory (bytes/s)
system.mem_ctrls1.bw_total::switch_cpus.data    102864339                       # Total bandwidth to/from this memory (bytes/s)
system.mem_ctrls1.bw_total::switch_cpus_1.inst           18                       # Total bandwidth to/from this memory (bytes/s)
system.mem_ctrls1.bw_total::switch_cpus_1.data     20500761                       # Total bandwidth to/from this memory (bytes/s)
system.mem_ctrls1.bw_total::total           123565524                       # Total bandwidth to/from this memory (bytes/s)
system.mem_ctrls1.readReqs                   34113879                       # Number of read requests accepted
system.mem_ctrls1.writeReqs                     55398                       # Number of write requests accepted
system.mem_ctrls1.readBursts                 34113879                       # Number of DRAM read bursts, including those serviced by the write queue
system.mem_ctrls1.writeBursts                   55398                       # Number of DRAM write bursts, including those merged in the write queue
system.mem_ctrls1.bytesReadDRAM            2182945472                       # Total number of bytes read from DRAM
system.mem_ctrls1.bytesReadWrQ                 342784                       # Total number of bytes read from write queue
system.mem_ctrls1.bytesWritten                3527488                       # Total number of bytes written to DRAM
system.mem_ctrls1.bytesReadSys             2183288256                       # Total read bytes from the system interface side
system.mem_ctrls1.bytesWrittenSys             3545472                       # Total written bytes from the system interface side
system.mem_ctrls1.servicedByWrQ                  5356                       # Number of DRAM read bursts serviced by the write queue
system.mem_ctrls1.mergedWrBursts                  253                       # Number of DRAM write bursts merged with an existing one
system.mem_ctrls1.neitherReadNorWriteReqs            0                       # Number of requests that are neither read nor write
system.mem_ctrls1.perBankRdBursts::0          2128351                       # Per bank write bursts
system.mem_ctrls1.perBankRdBursts::1          2134419                       # Per bank write bursts
system.mem_ctrls1.perBankRdBursts::2          2138373                       # Per bank write bursts
system.mem_ctrls1.perBankRdBursts::3          2130585                       # Per bank write bursts
system.mem_ctrls1.perBankRdBursts::4          2132393                       # Per bank write bursts
system.mem_ctrls1.perBankRdBursts::5          2133190                       # Per bank write bursts
system.mem_ctrls1.perBankRdBursts::6          2136425                       # Per bank write bursts
system.mem_ctrls1.perBankRdBursts::7          2132218                       # Per bank write bursts
system.mem_ctrls1.perBankRdBursts::8          2141643                       # Per bank write bursts
system.mem_ctrls1.perBankRdBursts::9          2135130                       # Per bank write bursts
system.mem_ctrls1.perBankRdBursts::10         2140056                       # Per bank write bursts
system.mem_ctrls1.perBankRdBursts::11         2124332                       # Per bank write bursts
system.mem_ctrls1.perBankRdBursts::12         2126327                       # Per bank write bursts
system.mem_ctrls1.perBankRdBursts::13         2127292                       # Per bank write bursts
system.mem_ctrls1.perBankRdBursts::14         2128990                       # Per bank write bursts
system.mem_ctrls1.perBankRdBursts::15         2118799                       # Per bank write bursts
system.mem_ctrls1.perBankWrBursts::0             3250                       # Per bank write bursts
system.mem_ctrls1.perBankWrBursts::1             3248                       # Per bank write bursts
system.mem_ctrls1.perBankWrBursts::2             3172                       # Per bank write bursts
system.mem_ctrls1.perBankWrBursts::3             4219                       # Per bank write bursts
system.mem_ctrls1.perBankWrBursts::4             4382                       # Per bank write bursts
system.mem_ctrls1.perBankWrBursts::5             3308                       # Per bank write bursts
system.mem_ctrls1.perBankWrBursts::6             3322                       # Per bank write bursts
system.mem_ctrls1.perBankWrBursts::7             3435                       # Per bank write bursts
system.mem_ctrls1.perBankWrBursts::8             3445                       # Per bank write bursts
system.mem_ctrls1.perBankWrBursts::9             3325                       # Per bank write bursts
system.mem_ctrls1.perBankWrBursts::10            3375                       # Per bank write bursts
system.mem_ctrls1.perBankWrBursts::11            3371                       # Per bank write bursts
system.mem_ctrls1.perBankWrBursts::12            3329                       # Per bank write bursts
system.mem_ctrls1.perBankWrBursts::13            3334                       # Per bank write bursts
system.mem_ctrls1.perBankWrBursts::14            3284                       # Per bank write bursts
system.mem_ctrls1.perBankWrBursts::15            3318                       # Per bank write bursts
system.mem_ctrls1.numRdRetry                        0                       # Number of times read queue was full causing retry
system.mem_ctrls1.numWrRetry                        0                       # Number of times write queue was full causing retry
system.mem_ctrls1.totGap                 17697765714804                       # Total gap between requests
system.mem_ctrls1.readPktSize::0                    0                       # Read request sizes (log2)
system.mem_ctrls1.readPktSize::1                    0                       # Read request sizes (log2)
system.mem_ctrls1.readPktSize::2                    0                       # Read request sizes (log2)
system.mem_ctrls1.readPktSize::3                    0                       # Read request sizes (log2)
system.mem_ctrls1.readPktSize::4                    0                       # Read request sizes (log2)
system.mem_ctrls1.readPktSize::5                    0                       # Read request sizes (log2)
system.mem_ctrls1.readPktSize::6             34113879                       # Read request sizes (log2)
system.mem_ctrls1.writePktSize::0                   0                       # Write request sizes (log2)
system.mem_ctrls1.writePktSize::1                   0                       # Write request sizes (log2)
system.mem_ctrls1.writePktSize::2                   0                       # Write request sizes (log2)
system.mem_ctrls1.writePktSize::3                   0                       # Write request sizes (log2)
system.mem_ctrls1.writePktSize::4                   0                       # Write request sizes (log2)
system.mem_ctrls1.writePktSize::5                   0                       # Write request sizes (log2)
system.mem_ctrls1.writePktSize::6               55398                       # Write request sizes (log2)
system.mem_ctrls1.rdQLenPdf::0               34108052                       # What read queue length does an incoming req see
system.mem_ctrls1.rdQLenPdf::1                    450                       # What read queue length does an incoming req see
system.mem_ctrls1.rdQLenPdf::2                     20                       # What read queue length does an incoming req see
system.mem_ctrls1.rdQLenPdf::3                      1                       # What read queue length does an incoming req see
system.mem_ctrls1.rdQLenPdf::4                      0                       # What read queue length does an incoming req see
system.mem_ctrls1.rdQLenPdf::5                      0                       # What read queue length does an incoming req see
system.mem_ctrls1.rdQLenPdf::6                      0                       # What read queue length does an incoming req see
system.mem_ctrls1.rdQLenPdf::7                      0                       # What read queue length does an incoming req see
system.mem_ctrls1.rdQLenPdf::8                      0                       # What read queue length does an incoming req see
system.mem_ctrls1.rdQLenPdf::9                      0                       # What read queue length does an incoming req see
system.mem_ctrls1.rdQLenPdf::10                     0                       # What read queue length does an incoming req see
system.mem_ctrls1.rdQLenPdf::11                     0                       # What read queue length does an incoming req see
system.mem_ctrls1.rdQLenPdf::12                     0                       # What read queue length does an incoming req see
system.mem_ctrls1.rdQLenPdf::13                     0                       # What read queue length does an incoming req see
system.mem_ctrls1.rdQLenPdf::14                     0                       # What read queue length does an incoming req see
system.mem_ctrls1.rdQLenPdf::15                     0                       # What read queue length does an incoming req see
system.mem_ctrls1.rdQLenPdf::16                     0                       # What read queue length does an incoming req see
system.mem_ctrls1.rdQLenPdf::17                     0                       # What read queue length does an incoming req see
system.mem_ctrls1.rdQLenPdf::18                     0                       # What read queue length does an incoming req see
system.mem_ctrls1.rdQLenPdf::19                     0                       # What read queue length does an incoming req see
system.mem_ctrls1.rdQLenPdf::20                     0                       # What read queue length does an incoming req see
system.mem_ctrls1.rdQLenPdf::21                     0                       # What read queue length does an incoming req see
system.mem_ctrls1.rdQLenPdf::22                     0                       # What read queue length does an incoming req see
system.mem_ctrls1.rdQLenPdf::23                     0                       # What read queue length does an incoming req see
system.mem_ctrls1.rdQLenPdf::24                     0                       # What read queue length does an incoming req see
system.mem_ctrls1.rdQLenPdf::25                     0                       # What read queue length does an incoming req see
system.mem_ctrls1.rdQLenPdf::26                     0                       # What read queue length does an incoming req see
system.mem_ctrls1.rdQLenPdf::27                     0                       # What read queue length does an incoming req see
system.mem_ctrls1.rdQLenPdf::28                     0                       # What read queue length does an incoming req see
system.mem_ctrls1.rdQLenPdf::29                     0                       # What read queue length does an incoming req see
system.mem_ctrls1.rdQLenPdf::30                     0                       # What read queue length does an incoming req see
system.mem_ctrls1.rdQLenPdf::31                     0                       # What read queue length does an incoming req see
system.mem_ctrls1.wrQLenPdf::0                      2                       # What write queue length does an incoming req see
system.mem_ctrls1.wrQLenPdf::1                      2                       # What write queue length does an incoming req see
system.mem_ctrls1.wrQLenPdf::2                      2                       # What write queue length does an incoming req see
system.mem_ctrls1.wrQLenPdf::3                      2                       # What write queue length does an incoming req see
system.mem_ctrls1.wrQLenPdf::4                      2                       # What write queue length does an incoming req see
system.mem_ctrls1.wrQLenPdf::5                      2                       # What write queue length does an incoming req see
system.mem_ctrls1.wrQLenPdf::6                      2                       # What write queue length does an incoming req see
system.mem_ctrls1.wrQLenPdf::7                      2                       # What write queue length does an incoming req see
system.mem_ctrls1.wrQLenPdf::8                      2                       # What write queue length does an incoming req see
system.mem_ctrls1.wrQLenPdf::9                      2                       # What write queue length does an incoming req see
system.mem_ctrls1.wrQLenPdf::10                     2                       # What write queue length does an incoming req see
system.mem_ctrls1.wrQLenPdf::11                     2                       # What write queue length does an incoming req see
system.mem_ctrls1.wrQLenPdf::12                     2                       # What write queue length does an incoming req see
system.mem_ctrls1.wrQLenPdf::13                     2                       # What write queue length does an incoming req see
system.mem_ctrls1.wrQLenPdf::14                     2                       # What write queue length does an incoming req see
system.mem_ctrls1.wrQLenPdf::15                  2913                       # What write queue length does an incoming req see
system.mem_ctrls1.wrQLenPdf::16                  2962                       # What write queue length does an incoming req see
system.mem_ctrls1.wrQLenPdf::17                  3077                       # What write queue length does an incoming req see
system.mem_ctrls1.wrQLenPdf::18                  3078                       # What write queue length does an incoming req see
system.mem_ctrls1.wrQLenPdf::19                  3079                       # What write queue length does an incoming req see
system.mem_ctrls1.wrQLenPdf::20                  3078                       # What write queue length does an incoming req see
system.mem_ctrls1.wrQLenPdf::21                  3078                       # What write queue length does an incoming req see
system.mem_ctrls1.wrQLenPdf::22                  3080                       # What write queue length does an incoming req see
system.mem_ctrls1.wrQLenPdf::23                  3081                       # What write queue length does an incoming req see
system.mem_ctrls1.wrQLenPdf::24                  3077                       # What write queue length does an incoming req see
system.mem_ctrls1.wrQLenPdf::25                  3078                       # What write queue length does an incoming req see
system.mem_ctrls1.wrQLenPdf::26                  3078                       # What write queue length does an incoming req see
system.mem_ctrls1.wrQLenPdf::27                  3077                       # What write queue length does an incoming req see
system.mem_ctrls1.wrQLenPdf::28                  3076                       # What write queue length does an incoming req see
system.mem_ctrls1.wrQLenPdf::29                  3076                       # What write queue length does an incoming req see
system.mem_ctrls1.wrQLenPdf::30                  3076                       # What write queue length does an incoming req see
system.mem_ctrls1.wrQLenPdf::31                  3076                       # What write queue length does an incoming req see
system.mem_ctrls1.wrQLenPdf::32                  3075                       # What write queue length does an incoming req see
system.mem_ctrls1.wrQLenPdf::33                     0                       # What write queue length does an incoming req see
system.mem_ctrls1.wrQLenPdf::34                     0                       # What write queue length does an incoming req see
system.mem_ctrls1.wrQLenPdf::35                     0                       # What write queue length does an incoming req see
system.mem_ctrls1.wrQLenPdf::36                     0                       # What write queue length does an incoming req see
system.mem_ctrls1.wrQLenPdf::37                     0                       # What write queue length does an incoming req see
system.mem_ctrls1.wrQLenPdf::38                     0                       # What write queue length does an incoming req see
system.mem_ctrls1.wrQLenPdf::39                     0                       # What write queue length does an incoming req see
system.mem_ctrls1.wrQLenPdf::40                     0                       # What write queue length does an incoming req see
system.mem_ctrls1.wrQLenPdf::41                     0                       # What write queue length does an incoming req see
system.mem_ctrls1.wrQLenPdf::42                     0                       # What write queue length does an incoming req see
system.mem_ctrls1.wrQLenPdf::43                     0                       # What write queue length does an incoming req see
system.mem_ctrls1.wrQLenPdf::44                     0                       # What write queue length does an incoming req see
system.mem_ctrls1.wrQLenPdf::45                     0                       # What write queue length does an incoming req see
system.mem_ctrls1.wrQLenPdf::46                     0                       # What write queue length does an incoming req see
system.mem_ctrls1.wrQLenPdf::47                     0                       # What write queue length does an incoming req see
system.mem_ctrls1.wrQLenPdf::48                     0                       # What write queue length does an incoming req see
system.mem_ctrls1.wrQLenPdf::49                     0                       # What write queue length does an incoming req see
system.mem_ctrls1.wrQLenPdf::50                     0                       # What write queue length does an incoming req see
system.mem_ctrls1.wrQLenPdf::51                     0                       # What write queue length does an incoming req see
system.mem_ctrls1.wrQLenPdf::52                     0                       # What write queue length does an incoming req see
system.mem_ctrls1.wrQLenPdf::53                     0                       # What write queue length does an incoming req see
system.mem_ctrls1.wrQLenPdf::54                     0                       # What write queue length does an incoming req see
system.mem_ctrls1.wrQLenPdf::55                     0                       # What write queue length does an incoming req see
system.mem_ctrls1.wrQLenPdf::56                     0                       # What write queue length does an incoming req see
system.mem_ctrls1.wrQLenPdf::57                     0                       # What write queue length does an incoming req see
system.mem_ctrls1.wrQLenPdf::58                     0                       # What write queue length does an incoming req see
system.mem_ctrls1.wrQLenPdf::59                     0                       # What write queue length does an incoming req see
system.mem_ctrls1.wrQLenPdf::60                     0                       # What write queue length does an incoming req see
system.mem_ctrls1.wrQLenPdf::61                     0                       # What write queue length does an incoming req see
system.mem_ctrls1.wrQLenPdf::62                     0                       # What write queue length does an incoming req see
system.mem_ctrls1.wrQLenPdf::63                     0                       # What write queue length does an incoming req see
system.mem_ctrls1.bytesPerActivate::samples     34113697                       # Bytes accessed per row activation
system.mem_ctrls1.bytesPerActivate::mean    64.093686                       # Bytes accessed per row activation
system.mem_ctrls1.bytesPerActivate::gmean    64.054192                       # Bytes accessed per row activation
system.mem_ctrls1.bytesPerActivate::stdev     3.625558                       # Bytes accessed per row activation
system.mem_ctrls1.bytesPerActivate::0-127     34079725     99.90%     99.90% # Bytes accessed per row activation
system.mem_ctrls1.bytesPerActivate::128-255        30293      0.09%     99.99% # Bytes accessed per row activation
system.mem_ctrls1.bytesPerActivate::256-383         2880      0.01%    100.00% # Bytes accessed per row activation
system.mem_ctrls1.bytesPerActivate::384-511          579      0.00%    100.00% # Bytes accessed per row activation
system.mem_ctrls1.bytesPerActivate::512-639          150      0.00%    100.00% # Bytes accessed per row activation
system.mem_ctrls1.bytesPerActivate::640-767           55      0.00%    100.00% # Bytes accessed per row activation
system.mem_ctrls1.bytesPerActivate::768-895           12      0.00%    100.00% # Bytes accessed per row activation
system.mem_ctrls1.bytesPerActivate::896-1023            2      0.00%    100.00% # Bytes accessed per row activation
system.mem_ctrls1.bytesPerActivate::1024-1151            1      0.00%    100.00% # Bytes accessed per row activation
system.mem_ctrls1.bytesPerActivate::total     34113697                       # Bytes accessed per row activation
system.mem_ctrls1.rdPerTurnAround::samples         3076                       # Reads before turning the bus around for writes
system.mem_ctrls1.rdPerTurnAround::mean  11062.441482                       # Reads before turning the bus around for writes
system.mem_ctrls1.rdPerTurnAround::gmean   281.799116                       # Reads before turning the bus around for writes
system.mem_ctrls1.rdPerTurnAround::stdev 61229.336797                       # Reads before turning the bus around for writes
system.mem_ctrls1.rdPerTurnAround::0-65535         2970     96.55%     96.55% # Reads before turning the bus around for writes
system.mem_ctrls1.rdPerTurnAround::65536-131071           48      1.56%     98.11% # Reads before turning the bus around for writes
system.mem_ctrls1.rdPerTurnAround::131072-196607           20      0.65%     98.76% # Reads before turning the bus around for writes
system.mem_ctrls1.rdPerTurnAround::196608-262143            7      0.23%     98.99% # Reads before turning the bus around for writes
system.mem_ctrls1.rdPerTurnAround::262144-327679            6      0.20%     99.19% # Reads before turning the bus around for writes
system.mem_ctrls1.rdPerTurnAround::327680-393215            5      0.16%     99.35% # Reads before turning the bus around for writes
system.mem_ctrls1.rdPerTurnAround::393216-458751            4      0.13%     99.48% # Reads before turning the bus around for writes
system.mem_ctrls1.rdPerTurnAround::458752-524287            3      0.10%     99.58% # Reads before turning the bus around for writes
system.mem_ctrls1.rdPerTurnAround::524288-589823            1      0.03%     99.61% # Reads before turning the bus around for writes
system.mem_ctrls1.rdPerTurnAround::589824-655359            1      0.03%     99.64% # Reads before turning the bus around for writes
system.mem_ctrls1.rdPerTurnAround::655360-720895            5      0.16%     99.80% # Reads before turning the bus around for writes
system.mem_ctrls1.rdPerTurnAround::720896-786431            1      0.03%     99.84% # Reads before turning the bus around for writes
system.mem_ctrls1.rdPerTurnAround::786432-851967            2      0.07%     99.90% # Reads before turning the bus around for writes
system.mem_ctrls1.rdPerTurnAround::851968-917503            2      0.07%     99.97% # Reads before turning the bus around for writes
system.mem_ctrls1.rdPerTurnAround::1.17965e+06-1.24518e+06            1      0.03%    100.00% # Reads before turning the bus around for writes
system.mem_ctrls1.rdPerTurnAround::total         3076                       # Reads before turning the bus around for writes
system.mem_ctrls1.wrPerTurnAround::samples         3076                       # Writes before turning the bus around for reads
system.mem_ctrls1.wrPerTurnAround::mean     17.918401                       # Writes before turning the bus around for reads
system.mem_ctrls1.wrPerTurnAround::gmean    17.912321                       # Writes before turning the bus around for reads
system.mem_ctrls1.wrPerTurnAround::stdev     0.477976                       # Writes before turning the bus around for reads
system.mem_ctrls1.wrPerTurnAround::16             116      3.77%      3.77% # Writes before turning the bus around for reads
system.mem_ctrls1.wrPerTurnAround::17              48      1.56%      5.33% # Writes before turning the bus around for reads
system.mem_ctrls1.wrPerTurnAround::18            2896     94.15%     99.48% # Writes before turning the bus around for reads
system.mem_ctrls1.wrPerTurnAround::19              15      0.49%     99.97% # Writes before turning the bus around for reads
system.mem_ctrls1.wrPerTurnAround::32               1      0.03%    100.00% # Writes before turning the bus around for reads
system.mem_ctrls1.wrPerTurnAround::total         3076                       # Writes before turning the bus around for reads
system.mem_ctrls1.totQLat                979029935188                       # Total ticks spent queuing
system.mem_ctrls1.totMemAccLat           1618564741438                       # Total ticks spent from burst creation until serviced by the DRAM
system.mem_ctrls1.totBusLat              170542615000                       # Total ticks spent in databus transfers
system.mem_ctrls1.avgQLat                    28703.38                       # Average queueing delay per DRAM burst
system.mem_ctrls1.avgBusLat                   5000.00                       # Average bus latency per DRAM burst
system.mem_ctrls1.avgMemAccLat               47453.38                       # Average memory access latency per DRAM burst
system.mem_ctrls1.avgRdBW                      123.35                       # Average DRAM read bandwidth in MiByte/s
system.mem_ctrls1.avgWrBW                        0.20                       # Average achieved write bandwidth in MiByte/s
system.mem_ctrls1.avgRdBWSys                   123.37                       # Average system read bandwidth in MiByte/s
system.mem_ctrls1.avgWrBWSys                     0.20                       # Average system write bandwidth in MiByte/s
system.mem_ctrls1.peakBW                     12800.00                       # Theoretical peak bandwidth in MiByte/s
system.mem_ctrls1.busUtil                        0.97                       # Data bus utilization in percentage
system.mem_ctrls1.busUtilRead                    0.96                       # Data bus utilization in percentage for reads
system.mem_ctrls1.busUtilWrite                   0.00                       # Data bus utilization in percentage for writes
system.mem_ctrls1.avgRdQLen                      1.00                       # Average read queue length when enqueuing
system.mem_ctrls1.avgWrQLen                     24.28                       # Average write queue length when enqueuing
system.mem_ctrls1.readRowHits                   42270                       # Number of row buffer hits during reads
system.mem_ctrls1.writeRowHits                   7667                       # Number of row buffer hits during writes
system.mem_ctrls1.readRowHitRate                 0.12                       # Row buffer hit rate for reads
system.mem_ctrls1.writeRowHitRate               13.90                       # Row buffer hit rate for writes
system.mem_ctrls1.avgGap                    517943.82                       # Average gap between requests
system.mem_ctrls1.pageHitRate                    0.15                       # Row buffer hit rate, read and write combined
system.mem_ctrls1_0.actEnergy            121870418040                       # Energy for activate commands per rank (pJ)
system.mem_ctrls1_0.preEnergy             64775659575                       # Energy for precharge commands per rank (pJ)
system.mem_ctrls1_0.readEnergy           121850911560                       # Energy for read commands per rank (pJ)
system.mem_ctrls1_0.writeEnergy             147913920                       # Energy for write commands per rank (pJ)
system.mem_ctrls1_0.refreshEnergy        1397066885760.000244                       # Energy for refresh commands per rank (pJ)
system.mem_ctrls1_0.actBackEnergy        583891686030                       # Energy for active background per rank (pJ)
system.mem_ctrls1_0.preBackEnergy         31659723360                       # Energy for precharge background per rank (pJ)
system.mem_ctrls1_0.actPowerDownEnergy   6834948640620                       # Energy for active power-down per rank (pJ)
system.mem_ctrls1_0.prePowerDownEnergy   516405153600                       # Energy for precharge power-down per rank (pJ)
system.mem_ctrls1_0.selfRefreshEnergy       376269495                       # Energy for self refresh per rank (pJ)
system.mem_ctrls1_0.totalEnergy          9672994147620                       # Total energy per rank (pJ)
system.mem_ctrls1_0.averagePower           546.565831                       # Core power per rank (mW)
system.mem_ctrls1_0.totalIdleTime        16335505710072                       # Total Idle time Per DRAM Rank
system.mem_ctrls1_0.memoryStateTime::IDLE  13534152106                       # Time in different power states
system.mem_ctrls1_0.memoryStateTime::REF 590977010000                       # Time in different power states
system.mem_ctrls1_0.memoryStateTime::SREF   1124992654                       # Time in different power states
system.mem_ctrls1_0.memoryStateTime::PRE_PDN 1344974754711                       # Time in different power states
system.mem_ctrls1_0.memoryStateTime::ACT 757747164421                       # Time in different power states
system.mem_ctrls1_0.memoryStateTime::ACT_PDN 14989407850945                       # Time in different power states
system.mem_ctrls1_1.actEnergy            121701421380                       # Energy for activate commands per rank (pJ)
system.mem_ctrls1_1.preEnergy             64685820540                       # Energy for precharge commands per rank (pJ)
system.mem_ctrls1_1.readEnergy           121683942660                       # Energy for read commands per rank (pJ)
system.mem_ctrls1_1.writeEnergy             139796820                       # Energy for write commands per rank (pJ)
system.mem_ctrls1_1.refreshEnergy        1397065041840.000244                       # Energy for refresh commands per rank (pJ)
system.mem_ctrls1_1.actBackEnergy        583167037050                       # Energy for active background per rank (pJ)
system.mem_ctrls1_1.preBackEnergy         31591489440                       # Energy for precharge background per rank (pJ)
system.mem_ctrls1_1.actPowerDownEnergy   6815059896810                       # Energy for active power-down per rank (pJ)
system.mem_ctrls1_1.prePowerDownEnergy   533835430080                       # Energy for precharge power-down per rank (pJ)
system.mem_ctrls1_1.selfRefreshEnergy       371938035                       # Energy for self refresh per rank (pJ)
system.mem_ctrls1_1.totalEnergy          9669302542485                       # Total energy per rank (pJ)
system.mem_ctrls1_1.averagePower           546.357240                       # Core power per rank (mW)
system.mem_ctrls1_1.totalIdleTime        16336987697292                       # Total Idle time Per DRAM Rank
system.mem_ctrls1_1.memoryStateTime::IDLE  13555653700                       # Time in different power states
system.mem_ctrls1_1.memoryStateTime::REF 590976230000                       # Time in different power states
system.mem_ctrls1_1.memoryStateTime::SREF   1116495368                       # Time in different power states
system.mem_ctrls1_1.memoryStateTime::PRE_PDN 1390483260025                       # Time in different power states
system.mem_ctrls1_1.memoryStateTime::ACT 756246187540                       # Time in different power states
system.mem_ctrls1_1.memoryStateTime::ACT_PDN 14945388098204                       # Time in different power states
system.pwrStateResidencyTicks::UNDEFINED 179779949087337                       # Cumulative time (in ticks) in various power states
system.cpu.branchPred.lookups                      14                       # Number of BP lookups
system.cpu.branchPred.condPredicted                14                       # Number of conditional branches predicted
system.cpu.branchPred.condIncorrect                 4                       # Number of conditional branches incorrect
system.cpu.branchPred.BTBLookups                    0                       # Number of BTB lookups
system.cpu.branchPred.BTBHits                       0                       # Number of BTB hits
system.cpu.branchPred.BTBCorrect                    0                       # Number of correct BTB predictions (this stat may not work properly.
system.cpu.branchPred.BTBHitPct                   nan                       # BTB Hit Percentage
system.cpu.branchPred.usedRAS                       0                       # Number of times the RAS was used to get a target.
system.cpu.branchPred.RASInCorrect                  0                       # Number of incorrect RAS predictions.
system.cpu.branchPred.indirectLookups               0                       # Number of indirect predictor lookups.
system.cpu.branchPred.indirectHits                  0                       # Number of indirect target hits.
system.cpu.branchPred.indirectMisses                0                       # Number of indirect misses.
system.cpu.branchPredindirectMispredicted            0                       # Number of mispredicted indirect branches.
system.cpu_voltage_domain.voltage                   1                       # Voltage in Volts
system.cpu_clk_domain.clock                       333                       # Clock period in ticks
system.cpu.dtb.fetch_hits                           0                       # ITB hits
system.cpu.dtb.fetch_misses                         0                       # ITB misses
system.cpu.dtb.fetch_acv                            0                       # ITB acv
system.cpu.dtb.fetch_accesses                       0                       # ITB accesses
system.cpu.dtb.read_hits                            1                       # DTB read hits
system.cpu.dtb.read_misses                         11                       # DTB read misses
system.cpu.dtb.read_acv                             0                       # DTB read access violations
system.cpu.dtb.read_accesses                       12                       # DTB read accesses
system.cpu.dtb.write_hits                           0                       # DTB write hits
system.cpu.dtb.write_misses                         0                       # DTB write misses
system.cpu.dtb.write_acv                            0                       # DTB write access violations
system.cpu.dtb.write_accesses                       0                       # DTB write accesses
system.cpu.dtb.data_hits                            1                       # DTB hits
system.cpu.dtb.data_misses                         11                       # DTB misses
system.cpu.dtb.data_acv                             0                       # DTB access violations
system.cpu.dtb.data_accesses                       12                       # DTB accesses
system.cpu.itb.fetch_hits                          13                       # ITB hits
system.cpu.itb.fetch_misses                         0                       # ITB misses
system.cpu.itb.fetch_acv                            0                       # ITB acv
system.cpu.itb.fetch_accesses                      13                       # ITB accesses
system.cpu.itb.read_hits                            0                       # DTB read hits
system.cpu.itb.read_misses                          0                       # DTB read misses
system.cpu.itb.read_acv                             0                       # DTB read access violations
system.cpu.itb.read_accesses                        0                       # DTB read accesses
system.cpu.itb.write_hits                           0                       # DTB write hits
system.cpu.itb.write_misses                         0                       # DTB write misses
system.cpu.itb.write_acv                            0                       # DTB write access violations
system.cpu.itb.write_accesses                       0                       # DTB write accesses
system.cpu.itb.data_hits                            0                       # DTB hits
system.cpu.itb.data_misses                          0                       # DTB misses
system.cpu.itb.data_acv                             0                       # DTB access violations
[...]
system.switch_cpus_1.iq.FU_type_0::total   1853167374                       # Type of FU issued
system.switch_cpus_1.iq.rate                 0.199662                       # Inst issue rate
system.switch_cpus_1.iq.fu_busy_cnt              4330                       # FU busy when requested
system.switch_cpus_1.iq.fu_busy_rate         0.000002                       # FU busy rate (busy events/executed inst)
system.switch_cpus_1.iq.int_inst_queue_reads  12987871620                       # Number of integer instruction queue reads
system.switch_cpus_1.iq.int_inst_queue_writes   6295550700                       # Number of integer instruction queue writes
system.switch_cpus_1.iq.int_inst_queue_wakeup_accesses   1164802240                       # Number of integer instruction queue wakeup accesses
system.switch_cpus_1.iq.fp_inst_queue_reads            0                       # Number of floating instruction queue reads
system.switch_cpus_1.iq.fp_inst_queue_writes            0                       # Number of floating instruction queue writes
system.switch_cpus_1.iq.fp_inst_queue_wakeup_accesses            0                       # Number of floating instruction queue wakeup accesses
system.switch_cpus_1.iq.int_alu_accesses   1853171704                       # Number of integer alu accesses
system.switch_cpus_1.iq.fp_alu_accesses             0                       # Number of floating point alu accesses
system.switch_cpus_1.iew.lsq.thread0.forwLoads          946                       # Number of loads that had data forwarded from stores
system.switch_cpus_1.iew.lsq.thread0.invAddrLoads            0                       # Number of loads ignored due to an invalid address
system.switch_cpus_1.iew.lsq.thread0.squashedLoads   1004043629                       # Number of loads squashed
system.switch_cpus_1.iew.lsq.thread0.ignoredResponses           15                       # Number of memory responses ignored because the instruction is squashed
system.switch_cpus_1.iew.lsq.thread0.memOrderViolation           42                       # Number of memory ordering violations
system.switch_cpus_1.iew.lsq.thread0.squashedStores       136308                       # Number of stores squashed
system.switch_cpus_1.iew.lsq.thread0.invAddrSwpfs            0                       # Number of software prefetches ignored due to an invalid address
system.switch_cpus_1.iew.lsq.thread0.blockedLoads            0                       # Number of blocked loads due to partial load-store forwarding
system.switch_cpus_1.iew.lsq.thread0.rescheduledLoads            0                       # Number of loads that were rescheduled
system.switch_cpus_1.iew.lsq.thread0.cacheBlocked         7409                       # Number of times an access to memory failed due to the cache being blocked
system.switch_cpus_1.iew.iewIdleCycles              0                       # Number of cycles IEW is idle
system.switch_cpus_1.iew.iewSquashCycles     33186867                       # Number of cycles IEW is squashing
system.switch_cpus_1.iew.iewBlockCycles    8145074646                       # Number of cycles IEW is blocking
system.switch_cpus_1.iew.iewUnblockCycles     40830580                       # Number of cycles IEW is unblocking
system.switch_cpus_1.iew.iewDispatchedInsts   3247793996                       # Number of instructions dispatched to IQ
system.switch_cpus_1.iew.iewDispSquashedInsts         4528                       # Number of squashed instructions skipped by dispatch
system.switch_cpus_1.iew.iewDispLoadInsts   1068297810                       # Number of dispatched load instructions
system.switch_cpus_1.iew.iewDispStoreInsts       148635                       # Number of dispatched store instructions
system.switch_cpus_1.iew.iewDispNonSpecInsts            0                       # Number of dispatched non-speculative instructions
system.switch_cpus_1.iew.iewIQFullEvents     19172530                       # Number of times the IQ has become full, causing a stall
system.switch_cpus_1.iew.iewLSQFullEvents      3786957                       # Number of times the LSQ has become full, causing a stall
system.switch_cpus_1.iew.memOrderViolationEvents           42                       # Number of memory order violations
system.switch_cpus_1.iew.predictedTakenIncorrect      1685574                       # Number of branches that were predicted taken incorrectly
system.switch_cpus_1.iew.predictedNotTakenIncorrect      2826065                       # Number of branches that were predicted not taken incorrectly
system.switch_cpus_1.iew.branchMispredicts      4511639                       # Number of branch mispredicts detected at execute
system.switch_cpus_1.iew.iewExecutedInsts   1848987780                       # Number of executed instructions
system.switch_cpus_1.iew.iewExecLoadInsts    748518174                       # Number of load instructions executed
system.switch_cpus_1.iew.iewExecSquashedInsts      4179592                       # Number of squashed instructions skipped in execute
system.switch_cpus_1.iew.exec_swp                   0                       # number of swp insts executed
system.switch_cpus_1.iew.exec_nop               18618                       # number of nop insts executed
system.switch_cpus_1.iew.exec_refs          748540627                       # number of memory reference insts executed
system.switch_cpus_1.iew.exec_branches      219707336                       # Number of branches executed
system.switch_cpus_1.iew.exec_stores            22453                       # Number of stores executed
system.switch_cpus_1.iew.exec_rate           0.199211                       # Inst execution rate
system.switch_cpus_1.iew.wb_sent           1848073305                       # cumulative count of insts sent to commit
system.switch_cpus_1.iew.wb_count          1164802240                       # cumulative count of insts written-back
system.switch_cpus_1.iew.wb_producers       670546916                       # num instructions producing a value
system.switch_cpus_1.iew.wb_consumers       923451142                       # num instructions consuming a value
system.switch_cpus_1.iew.wb_rate             0.125497                       # insts written-back per cycle
system.switch_cpus_1.iew.wb_fanout           0.726131                       # average fanout of values written-back
system.switch_cpus_1.commit.commitSquashedInsts   2816154230                       # The number of squashed insts skipped by commit
system.switch_cpus_1.commit.branchMispredicts      4333983                       # The number of times a branch was mispredicted
system.switch_cpus_1.commit.committed_per_cycle::samples   8916919155                       # Number of insts commited each cycle
system.switch_cpus_1.commit.committed_per_cycle::mean     0.022429                       # Number of insts commited each cycle
system.switch_cpus_1.commit.committed_per_cycle::stdev     0.280784                       # Number of insts commited each cycle
system.switch_cpus_1.commit.committed_per_cycle::underflows            0      0.00%      0.00% # Number of insts commited each cycle
system.switch_cpus_1.commit.committed_per_cycle::0   8814592264     98.85%     98.85% # Number of insts commited each cycle
system.switch_cpus_1.commit.committed_per_cycle::1     55551515      0.62%     99.48% # Number of insts commited each cycle
system.switch_cpus_1.commit.committed_per_cycle::2     32104123      0.36%     99.84% # Number of insts commited each cycle
system.switch_cpus_1.commit.committed_per_cycle::3      6061657      0.07%     99.90% # Number of insts commited each cycle
system.switch_cpus_1.commit.committed_per_cycle::4      1675277      0.02%     99.92% # Number of insts commited each cycle
system.switch_cpus_1.commit.committed_per_cycle::5        24151      0.00%     99.92% # Number of insts commited each cycle
system.switch_cpus_1.commit.committed_per_cycle::6         3213      0.00%     99.92% # Number of insts commited each cycle
system.switch_cpus_1.commit.committed_per_cycle::7        39784      0.00%     99.92% # Number of insts commited each cycle
system.switch_cpus_1.commit.committed_per_cycle::8      6867171      0.08%    100.00% # Number of insts commited each cycle
system.switch_cpus_1.commit.committed_per_cycle::overflows            0      0.00%    100.00% # Number of insts commited each cycle
system.switch_cpus_1.commit.committed_per_cycle::min_value            0                       # Number of insts commited each cycle
system.switch_cpus_1.commit.committed_per_cycle::max_value            8                       # Number of insts commited each cycle
system.switch_cpus_1.commit.committed_per_cycle::total   8916919155                       # Number of insts commited each cycle
system.switch_cpus_1.commit.committedInsts    200001729                       # Number of instructions committed
system.switch_cpus_1.commit.committedOps    200001729                       # Number of ops (including micro ops) committed
system.switch_cpus_1.commit.swp_count               0                       # Number of s/w prefetches committed
system.switch_cpus_1.commit.refs             64266478                       # Number of memory references committed
system.switch_cpus_1.commit.loads            64254151                       # Number of loads committed
system.switch_cpus_1.commit.membars                 0                       # Number of memory barriers committed
system.switch_cpus_1.commit.branches         49624817                       # Number of branches committed
system.switch_cpus_1.commit.fp_insts                0                       # Number of committed floating point instructions.
system.switch_cpus_1.commit.int_insts       199961763                       # Number of committed integer instructions.
system.switch_cpus_1.commit.function_calls          438                       # Number of function calls committed.
system.switch_cpus_1.commit.op_class_0::No_OpClass         1722      0.00%      0.00% # Class of committed instruction
system.switch_cpus_1.commit.op_class_0::IntAlu    135733506     67.87%     67.87% # Class of committed instruction
system.switch_cpus_1.commit.op_class_0::IntMult           23      0.00%     67.87% # Class of committed instruction
system.switch_cpus_1.commit.op_class_0::IntDiv            0      0.00%     67.87% # Class of committed instruction
system.switch_cpus_1.commit.op_class_0::FloatAdd            0      0.00%     67.87% # Class of committed instruction
system.switch_cpus_1.commit.op_class_0::FloatCmp            0      0.00%     67.87% # Class of committed instruction
system.switch_cpus_1.commit.op_class_0::FloatCvt            0      0.00%     67.87% # Class of committed instruction
system.switch_cpus_1.commit.op_class_0::FloatMult            0      0.00%     67.87% # Class of committed instruction
system.switch_cpus_1.commit.op_class_0::FloatMultAcc            0      0.00%     67.87% # Class of committed instruction
system.switch_cpus_1.commit.op_class_0::FloatDiv            0      0.00%     67.87% # Class of committed instruction
system.switch_cpus_1.commit.op_class_0::FloatMisc            0      0.00%     67.87% # Class of committed instruction
system.switch_cpus_1.commit.op_class_0::FloatSqrt            0      0.00%     67.87% # Class of committed instruction
system.switch_cpus_1.commit.op_class_0::SimdAdd            0      0.00%     67.87% # Class of committed instruction
system.switch_cpus_1.commit.op_class_0::SimdAddAcc            0      0.00%     67.87% # Class of committed instruction
system.switch_cpus_1.commit.op_class_0::SimdAlu            0      0.00%     67.87% # Class of committed instruction
system.switch_cpus_1.commit.op_class_0::SimdCmp            0      0.00%     67.87% # Class of committed instruction
system.switch_cpus_1.commit.op_class_0::SimdCvt            0      0.00%     67.87% # Class of committed instruction
system.switch_cpus_1.commit.op_class_0::SimdMisc            0      0.00%     67.87% # Class of committed instruction
system.switch_cpus_1.commit.op_class_0::SimdMult            0      0.00%     67.87% # Class of committed instruction
system.switch_cpus_1.commit.op_class_0::SimdMultAcc            0      0.00%     67.87% # Class of committed instruction
system.switch_cpus_1.commit.op_class_0::SimdShift            0      0.00%     67.87% # Class of committed instruction
system.switch_cpus_1.commit.op_class_0::SimdShiftAcc            0      0.00%     67.87% # Class of committed instruction
system.switch_cpus_1.commit.op_class_0::SimdSqrt            0      0.00%     67.87% # Class of committed instruction
system.switch_cpus_1.commit.op_class_0::SimdFloatAdd            0      0.00%     67.87% # Class of committed instruction
system.switch_cpus_1.commit.op_class_0::SimdFloatAlu            0      0.00%     67.87% # Class of committed instruction
system.switch_cpus_1.commit.op_class_0::SimdFloatCmp            0      0.00%     67.87% # Class of committed instruction
system.switch_cpus_1.commit.op_class_0::SimdFloatCvt            0      0.00%     67.87% # Class of committed instruction
system.switch_cpus_1.commit.op_class_0::SimdFloatDiv            0      0.00%     67.87% # Class of committed instruction
system.switch_cpus_1.commit.op_class_0::SimdFloatMisc            0      0.00%     67.87% # Class of committed instruction
system.switch_cpus_1.commit.op_class_0::SimdFloatMult            0      0.00%     67.87% # Class of committed instruction
system.switch_cpus_1.commit.op_class_0::SimdFloatMultAcc            0      0.00%     67.87% # Class of committed instruction
system.switch_cpus_1.commit.op_class_0::SimdFloatSqrt            0      0.00%     67.87% # Class of committed instruction
system.switch_cpus_1.commit.op_class_0::MemRead     64254151     32.13%     99.99% # Class of committed instruction
system.switch_cpus_1.commit.op_class_0::MemWrite        12327      0.01%    100.00% # Class of committed instruction
system.switch_cpus_1.commit.op_class_0::FloatMemRead            0      0.00%    100.00% # Class of committed instruction
system.switch_cpus_1.commit.op_class_0::FloatMemWrite            0      0.00%    100.00% # Class of committed instruction
system.switch_cpus_1.commit.op_class_0::IprAccess            0      0.00%    100.00% # Class of committed instruction
system.switch_cpus_1.commit.op_class_0::InstPrefetch            0      0.00%    100.00% # Class of committed instruction
system.switch_cpus_1.commit.op_class_0::total    200001729                       # Class of committed instruction
system.switch_cpus_1.commit.bw_lim_events      6867171                       # number cycles where commit BW limit reached
system.switch_cpus_1.rob.rob_reads        11551120932                       # The number of ROB reads
system.switch_cpus_1.rob.rob_writes        6396924939                       # The number of ROB writes
system.switch_cpus_1.timesIdled                     9                       # Number of times that the entire CPU went into an idle state and unscheduled itself
system.switch_cpus_1.idleCycles                  1392                       # Total number of cycles that the CPU has spent unscheduled due to idling
system.switch_cpus_1.committedInsts         200000007                       # Number of Instructions Simulated
system.switch_cpus_1.committedOps           200000007                       # Number of Ops (including micro ops) Simulated
system.switch_cpus_1.cpi                    46.407665                       # CPI: Cycles Per Instruction
system.switch_cpus_1.cpi_total              46.407665                       # CPI: Total CPI of All Threads
system.switch_cpus_1.ipc                     0.021548                       # IPC: Instructions Per Cycle
system.switch_cpus_1.ipc_total               0.021548                       # IPC: Total IPC of All Threads
system.switch_cpus_1.int_regfile_reads     2717208713                       # number of integer regfile reads
system.switch_cpus_1.int_regfile_writes     945101870                       # number of integer regfile writes
system.switch_cpus_1.fp_regfile_writes             32                       # number of floating regfile writes
system.tol3bus.snoop_filter.tot_requests    284833207                       # Total number of requests made to the snoop filter.
system.tol3bus.snoop_filter.hit_single_requests    142414742                       # Number of requests hitting in the snoop filter with a single holder of the requested data.
system.tol3bus.snoop_filter.hit_multi_requests            0                       # Number of requests hitting in the snoop filter with multiple (>1) holders of the requested data.
system.tol3bus.snoop_filter.tot_snoops         172359                       # Total number of snoops made to the snoop filter.
system.tol3bus.snoop_filter.hit_single_snoops       172359                       # Number of snoops hitting in the snoop filter with a single holder of the requested data.
system.tol3bus.snoop_filter.hit_multi_snoops            0                       # Number of snoops hitting in the snoop filter with multiple (>1) holders of the requested data.
system.tol3bus.pwrStateResidencyTicks::UNDEFINED 179779949087337                       # Cumulative time (in ticks) in various power states
system.tol3bus.trans_dist::ReadResp         142404606                       # Transaction distribution
system.tol3bus.trans_dist::WritebackDirty      6346214                       # Transaction distribution
system.tol3bus.trans_dist::CleanEvict       204218560                       # Transaction distribution
system.tol3bus.trans_dist::ReadExReq            13859                       # Transaction distribution
system.tol3bus.trans_dist::ReadExResp           13859                       # Transaction distribution
system.tol3bus.trans_dist::ReadSharedReq    142404606                       # Transaction distribution
system.tol3bus.pkt_count_system.cpu.l2.mem_side::system.l3.cpu_side    427251672                       # Packet count per connected master and slave (bytes)
system.tol3bus.pkt_size_system.cpu.l2.mem_side::system.l3.cpu_side   9513881600                       # Cumulative packet size per connected master and slave (bytes)
system.tol3bus.snoops                        68150032                       # Total snoops (count)
system.tol3bus.snoopTraffic                   7057856                       # Total snoop traffic (bytes)
system.tol3bus.snoop_fanout::samples        210568497                       # Request fanout histogram
system.tol3bus.snoop_fanout::mean            0.000819                       # Request fanout histogram
system.tol3bus.snoop_fanout::stdev           0.028598                       # Request fanout histogram
system.tol3bus.snoop_fanout::underflows             0      0.00%      0.00% # Request fanout histogram
system.tol3bus.snoop_fanout::0              210396138     99.92%     99.92% # Request fanout histogram
system.tol3bus.snoop_fanout::1                 172359      0.08%    100.00% # Request fanout histogram
system.tol3bus.snoop_fanout::overflows              0      0.00%    100.00% # Request fanout histogram
system.tol3bus.snoop_fanout::min_value              0                       # Request fanout histogram
system.tol3bus.snoop_fanout::max_value              1                       # Request fanout histogram
system.tol3bus.snoop_fanout::total          210568497                       # Request fanout histogram
system.tol3bus.reqLayer0.occupancy        96926024286                       # Layer occupancy (ticks)
system.tol3bus.reqLayer0.utilization              0.5                       # Layer utilization (%)
system.tol3bus.respLayer0.occupancy       94850697690                       # Layer occupancy (ticks)
system.tol3bus.respLayer0.utilization             0.5                       # Layer utilization (%)

---------- End Simulation Statistics   ----------
