
---------- Begin Simulation Statistics ----------
sim_seconds                                  1.718168                       # Number of seconds simulated
sim_ticks                                1718167538241                       # Number of ticks simulated
final_tick                               35021545462602                       # Number of ticks from beginning of simulation (restored from checkpoints and never reset)
sim_freq                                 1000000000000                       # Frequency of simulated ticks
host_inst_rate                                 526843                       # Simulator instruction rate (inst/s)
host_op_rate                                   526843                       # Simulator op (including micro ops) rate (op/s)
host_tick_rate                              754337676                       # Simulator tick rate (ticks/s)
host_mem_usage                                2568160                       # Number of bytes of host memory used
host_seconds                                  2277.72                       # Real time elapsed on the host
sim_insts                                  1200000009                       # Number of instructions simulated
sim_ops                                    1200000009                       # Number of ops (including micro ops) simulated
system.voltage_domain.voltage                       1                       # Voltage in Volts
system.clk_domain.clock                          1000                       # Clock period in ticks
system.mem_ctrls0.pwrStateResidencyTicks::UNDEFINED 35021545462602                       # Cumulative time (in ticks) in various power states
system.mem_ctrls0.bytes_read::cpu.inst            128                       # Number of bytes read from this memory
system.mem_ctrls0.bytes_read::cpu.data            192                       # Number of bytes read from this memory
system.mem_ctrls0.bytes_read::switch_cpus.inst         8064                       # Number of bytes read from this memory
system.mem_ctrls0.bytes_read::switch_cpus.data     86130688                       # Number of bytes read from this memory
system.mem_ctrls0.bytes_read::switch_cpus_1.inst           64                       # Number of bytes read from this memory
system.mem_ctrls0.bytes_read::switch_cpus_1.data     17654400                       # Number of bytes read from this memory
system.mem_ctrls0.bytes_read::total         103793536                       # Number of bytes read from this memory
system.mem_ctrls0.bytes_inst_read::cpu.inst          128                       # Number of instructions bytes read from this memory
system.mem_ctrls0.bytes_inst_read::switch_cpus.inst         8064                       # Number of instructions bytes read from this memory
system.mem_ctrls0.bytes_inst_read::switch_cpus_1.inst           64                       # Number of instructions bytes read from this memory
system.mem_ctrls0.bytes_inst_read::total         8256                       # Number of instructions bytes read from this memory
system.mem_ctrls0.bytes_written::writebacks     34958592                       # Number of bytes written to this memory
system.mem_ctrls0.bytes_written::total       34958592                       # Number of bytes written to this memory
system.mem_ctrls0.num_reads::cpu.inst               2                       # Number of read requests responded to by this memory
system.mem_ctrls0.num_reads::cpu.data               3                       # Number of read requests responded to by this memory
system.mem_ctrls0.num_reads::switch_cpus.inst          126                       # Number of read requests responded to by this memory
system.mem_ctrls0.num_reads::switch_cpus.data      1345792                       # Number of read requests responded to by this memory
system.mem_ctrls0.num_reads::switch_cpus_1.inst            1                       # Number of read requests responded to by this memory
system.mem_ctrls0.num_reads::switch_cpus_1.data       275850                       # Number of read requests responded to by this memory
system.mem_ctrls0.num_reads::total            1621774                       # Number of read requests responded to by this memory
system.mem_ctrls0.num_writes::writebacks       546228                       # Number of write requests responded to by this memory
system.mem_ctrls0.num_writes::total            546228                       # Number of write requests responded to by this memory
system.mem_ctrls0.bw_read::cpu.inst                74                       # Total read bandwidth from this memory (bytes/s)
system.mem_ctrls0.bw_read::cpu.data               112                       # Total read bandwidth from this memory (bytes/s)
system.mem_ctrls0.bw_read::switch_cpus.inst         4693                       # Total read bandwidth from this memory (bytes/s)
system.mem_ctrls0.bw_read::switch_cpus.data     50129388                       # Total read bandwidth from this memory (bytes/s)
system.mem_ctrls0.bw_read::switch_cpus_1.inst           37                       # Total read bandwidth from this memory (bytes/s)
system.mem_ctrls0.bw_read::switch_cpus_1.data     10275133                       # Total read bandwidth from this memory (bytes/s)
system.mem_ctrls0.bw_read::total             60409438                       # Total read bandwidth from this memory (bytes/s)
system.mem_ctrls0.bw_inst_read::cpu.inst           74                       # Instruction read bandwidth from this memory (bytes/s)
system.mem_ctrls0.bw_inst_read::switch_cpus.inst         4693                       # Instruction read bandwidth from this memory (bytes/s)
system.mem_ctrls0.bw_inst_read::switch_cpus_1.inst           37                       # Instruction read bandwidth from this memory (bytes/s)
system.mem_ctrls0.bw_inst_read::total            4805                       # Instruction read bandwidth from this memory (bytes/s)
system.mem_ctrls0.bw_write::writebacks       20346440                       # Write bandwidth from this memory (bytes/s)
system.mem_ctrls0.bw_write::total            20346440                       # Write bandwidth from this memory (bytes/s)
system.mem_ctrls0.bw_total::writebacks       20346440                       # Total bandwidth to/from this memory (bytes/s)
system.mem_ctrls0.bw_total::cpu.inst               74                       # Total bandwidth to/from this memory (bytes/s)
system.mem_ctrls0.bw_total::cpu.data              112                       # Total bandwidth to/from this memory (bytes/s)
system.mem_ctrls0.bw_total::switch_cpus.inst         4693                       # Total bandwidth to/from this memory (bytes/s)
system.mem_ctrls0.bw_total::switch_cpus.data     50129388                       # Total bandwidth to/from this memory (bytes/s)
system.mem_ctrls0.bw_total::switch_cpus_1.inst           37                       # Total bandwidth to/from this memory (bytes/s)
system.mem_ctrls0.bw_total::switch_cpus_1.data     10275133                       # Total bandwidth to/from this memory (bytes/s)
system.mem_ctrls0.bw_total::total            80755878                       # Total bandwidth to/from this memory (bytes/s)
system.mem_ctrls0.readReqs                    1621774                       # Number of read requests accepted
system.mem_ctrls0.writeReqs                    546228                       # Number of write requests accepted
system.mem_ctrls0.readBursts                  1621774                       # Number of DRAM read bursts, including those serviced by the write queue
system.mem_ctrls0.writeBursts                  546228                       # Number of DRAM write bursts, including those merged in the write queue
system.mem_ctrls0.bytesReadDRAM             103776512                       # Total number of bytes read from DRAM
system.mem_ctrls0.bytesReadWrQ                  17024                       # Total number of bytes read from write queue
system.mem_ctrls0.bytesWritten               34956800                       # Total number of bytes written to DRAM
system.mem_ctrls0.bytesReadSys              103793536                       # Total read bytes from the system interface side
system.mem_ctrls0.bytesWrittenSys            34958592                       # Total written bytes from the system interface side
system.mem_ctrls0.servicedByWrQ                   266                       # Number of DRAM read bursts serviced by the write queue
system.mem_ctrls0.mergedWrBursts                    0                       # Number of DRAM write bursts merged with an existing one
system.mem_ctrls0.neitherReadNorWriteReqs            0                       # Number of requests that are neither read nor write
system.mem_ctrls0.perBankRdBursts::0           105529                       # Per bank write bursts
system.mem_ctrls0.perBankRdBursts::1           103365                       # Per bank write bursts
system.mem_ctrls0.perBankRdBursts::2           103813                       # Per bank write bursts
system.mem_ctrls0.perBankRdBursts::3           101048                       # Per bank write bursts
system.mem_ctrls0.perBankRdBursts::4           101939                       # Per bank write bursts
system.mem_ctrls0.perBankRdBursts::5           101683                       # Per bank write bursts
system.mem_ctrls0.perBankRdBursts::6           100912                       # Per bank write bursts
system.mem_ctrls0.perBankRdBursts::7           101570                       # Per bank write bursts
system.mem_ctrls0.perBankRdBursts::8           100836                       # Per bank write bursts
system.mem_ctrls0.perBankRdBursts::9            99326                       # Per bank write bursts
system.mem_ctrls0.perBankRdBursts::10           99570                       # Per bank write bursts
system.mem_ctrls0.perBankRdBursts::11           99903                       # Per bank write bursts
system.mem_ctrls0.perBankRdBursts::12           98798                       # Per bank write bursts
system.mem_ctrls0.perBankRdBursts::13           98614                       # Per bank write bursts
system.mem_ctrls0.perBankRdBursts::14          100919                       # Per bank write bursts
system.mem_ctrls0.perBankRdBursts::15          103683                       # Per bank write bursts
system.mem_ctrls0.perBankWrBursts::0            36387                       # Per bank write bursts
system.mem_ctrls0.perBankWrBursts::1            35348                       # Per bank write bursts
system.mem_ctrls0.perBankWrBursts::2            34782                       # Per bank write bursts
system.mem_ctrls0.perBankWrBursts::3            33614                       # Per bank write bursts
system.mem_ctrls0.perBankWrBursts::4            33636                       # Per bank write bursts
system.mem_ctrls0.perBankWrBursts::5            33519                       # Per bank write bursts
system.mem_ctrls0.perBankWrBursts::6            33471                       # Per bank write bursts
system.mem_ctrls0.perBankWrBursts::7            33930                       # Per bank write bursts
system.mem_ctrls0.perBankWrBursts::8            33563                       # Per bank write bursts
system.mem_ctrls0.perBankWrBursts::9            33302                       # Per bank write bursts
system.mem_ctrls0.perBankWrBursts::10           33822                       # Per bank write bursts
system.mem_ctrls0.perBankWrBursts::11           33757                       # Per bank write bursts
system.mem_ctrls0.perBankWrBursts::12           33533                       # Per bank write bursts
system.mem_ctrls0.perBankWrBursts::13           33568                       # Per bank write bursts
system.mem_ctrls0.perBankWrBursts::14           34407                       # Per bank write bursts
system.mem_ctrls0.perBankWrBursts::15           35561                       # Per bank write bursts
system.mem_ctrls0.numRdRetry                        0                       # Number of times read queue was full causing retry
system.mem_ctrls0.numWrRetry                        0                       # Number of times write queue was full causing retry
system.mem_ctrls0.totGap                 1718167067046                       # Total gap between requests
system.mem_ctrls0.readPktSize::0                    0                       # Read request sizes (log2)
system.mem_ctrls0.readPktSize::1                    0                       # Read request sizes (log2)
system.mem_ctrls0.readPktSize::2                    0                       # Read request sizes (log2)
system.mem_ctrls0.readPktSize::3                    0                       # Read request sizes (log2)
system.mem_ctrls0.readPktSize::4                    0                       # Read request sizes (log2)
system.mem_ctrls0.readPktSize::5                    0                       # Read request sizes (log2)
system.mem_ctrls0.readPktSize::6              1621774                       # Read request sizes (log2)
system.mem_ctrls0.writePktSize::0                   0                       # Write request sizes (log2)
system.mem_ctrls0.writePktSize::1                   0                       # Write request sizes (log2)
system.mem_ctrls0.writePktSize::2                   0                       # Write request sizes (log2)
system.mem_ctrls0.writePktSize::3                   0                       # Write request sizes (log2)
system.mem_ctrls0.writePktSize::4                   0                       # Write request sizes (log2)
system.mem_ctrls0.writePktSize::5                   0                       # Write request sizes (log2)
system.mem_ctrls0.writePktSize::6              546228                       # Write request sizes (log2)
system.mem_ctrls0.rdQLenPdf::0                1536572                       # What read queue length does an incoming req see
system.mem_ctrls0.rdQLenPdf::1                  75779                       # What read queue length does an incoming req see
system.mem_ctrls0.rdQLenPdf::2                   8660                       # What read queue length does an incoming req see
system.mem_ctrls0.rdQLenPdf::3                    497                       # What read queue length does an incoming req see
system.mem_ctrls0.rdQLenPdf::4                      0                       # What read queue length does an incoming req see
system.mem_ctrls0.rdQLenPdf::5                      0                       # What read queue length does an incoming req see
system.mem_ctrls0.rdQLenPdf::6                      0                       # What read queue length does an incoming req see
system.mem_ctrls0.rdQLenPdf::7                      0                       # What read queue length does an incoming req see
system.mem_ctrls0.rdQLenPdf::8                      0                       # What read queue length does an incoming req see
system.mem_ctrls0.rdQLenPdf::9                      0                       # What read queue length does an incoming req see
system.mem_ctrls0.rdQLenPdf::10                     0                       # What read queue length does an incoming req see
system.mem_ctrls0.rdQLenPdf::11                     0                       # What read queue length does an incoming req see
system.mem_ctrls0.rdQLenPdf::12                     0                       # What read queue length does an incoming req see
system.mem_ctrls0.rdQLenPdf::13                     0                       # What read queue length does an incoming req see
system.mem_ctrls0.rdQLenPdf::14                     0                       # What read queue length does an incoming req see
system.mem_ctrls0.rdQLenPdf::15                     0                       # What read queue length does an incoming req see
system.mem_ctrls0.rdQLenPdf::16                     0                       # What read queue length does an incoming req see
system.mem_ctrls0.rdQLenPdf::17                     0                       # What read queue length does an incoming req see
system.mem_ctrls0.rdQLenPdf::18                     0                       # What read queue length does an incoming req see
system.mem_ctrls0.rdQLenPdf::19                     0                       # What read queue length does an incoming req see
system.mem_ctrls0.rdQLenPdf::20                     0                       # What read queue length does an incoming req see
system.mem_ctrls0.rdQLenPdf::21                     0                       # What read queue length does an incoming req see
system.mem_ctrls0.rdQLenPdf::22                     0                       # What read queue length does an incoming req see
system.mem_ctrls0.rdQLenPdf::23                     0                       # What read queue length does an incoming req see
system.mem_ctrls0.rdQLenPdf::24                     0                       # What read queue length does an incoming req see
system.mem_ctrls0.rdQLenPdf::25                     0                       # What read queue length does an incoming req see
system.mem_ctrls0.rdQLenPdf::26                     0                       # What read queue length does an incoming req see
system.mem_ctrls0.rdQLenPdf::27                     0                       # What read queue length does an incoming req see
system.mem_ctrls0.rdQLenPdf::28                     0                       # What read queue length does an incoming req see
system.mem_ctrls0.rdQLenPdf::29                     0                       # What read queue length does an incoming req see
system.mem_ctrls0.rdQLenPdf::30                     0                       # What read queue length does an incoming req see
system.mem_ctrls0.rdQLenPdf::31                     0                       # What read queue length does an incoming req see
system.mem_ctrls0.wrQLenPdf::0                      2                       # What write queue length does an incoming req see
system.mem_ctrls0.wrQLenPdf::1                      2                       # What write queue length does an incoming req see
system.mem_ctrls0.wrQLenPdf::2                      2                       # What write queue length does an incoming req see
system.mem_ctrls0.wrQLenPdf::3                      2                       # What write queue length does an incoming req see
system.mem_ctrls0.wrQLenPdf::4                      2                       # What write queue length does an incoming req see
system.mem_ctrls0.wrQLenPdf::5                      2                       # What write queue length does an incoming req see
system.mem_ctrls0.wrQLenPdf::6                      2                       # What write queue length does an incoming req see
system.mem_ctrls0.wrQLenPdf::7                      2                       # What write queue length does an incoming req see
system.mem_ctrls0.wrQLenPdf::8                      2                       # What write queue length does an incoming req see
system.mem_ctrls0.wrQLenPdf::9                      2                       # What write queue length does an incoming req see
system.mem_ctrls0.wrQLenPdf::10                     2                       # What write queue length does an incoming req see
system.mem_ctrls0.wrQLenPdf::11                     2                       # What write queue length does an incoming req see
system.mem_ctrls0.wrQLenPdf::12                     2                       # What write queue length does an incoming req see
system.mem_ctrls0.wrQLenPdf::13                     2                       # What write queue length does an incoming req see
system.mem_ctrls0.wrQLenPdf::14                     2                       # What write queue length does an incoming req see
system.mem_ctrls0.wrQLenPdf::15                 19592                       # What write queue length does an incoming req see
system.mem_ctrls0.wrQLenPdf::16                 20535                       # What write queue length does an incoming req see
system.mem_ctrls0.wrQLenPdf::17                 30583                       # What write queue length does an incoming req see
system.mem_ctrls0.wrQLenPdf::18                 31561                       # What write queue length does an incoming req see
system.mem_ctrls0.wrQLenPdf::19                 31645                       # What write queue length does an incoming req see
system.mem_ctrls0.wrQLenPdf::20                 31670                       # What write queue length does an incoming req see
system.mem_ctrls0.wrQLenPdf::21                 31707                       # What write queue length does an incoming req see
system.mem_ctrls0.wrQLenPdf::22                 31916                       # What write queue length does an incoming req see
system.mem_ctrls0.wrQLenPdf::23                 31882                       # What write queue length does an incoming req see
system.mem_ctrls0.wrQLenPdf::24                 31750                       # What write queue length does an incoming req see
system.mem_ctrls0.wrQLenPdf::25                 31741                       # What write queue length does an incoming req see
system.mem_ctrls0.wrQLenPdf::26                 31709                       # What write queue length does an incoming req see
system.mem_ctrls0.wrQLenPdf::27                 31710                       # What write queue length does an incoming req see
system.mem_ctrls0.wrQLenPdf::28                 31715                       # What write queue length does an incoming req see
system.mem_ctrls0.wrQLenPdf::29                 31664                       # What write queue length does an incoming req see
system.mem_ctrls0.wrQLenPdf::30                 31661                       # What write queue length does an incoming req see
system.mem_ctrls0.wrQLenPdf::31                 31554                       # What write queue length does an incoming req see
system.mem_ctrls0.wrQLenPdf::32                 31545                       # What write queue length does an incoming req see
system.mem_ctrls0.wrQLenPdf::33                    55                       # What write queue length does an incoming req see
system.mem_ctrls0.wrQLenPdf::34                     3                       # What write queue length does an incoming req see
system.mem_ctrls0.wrQLenPdf::35                     0                       # What write queue length does an incoming req see
system.mem_ctrls0.wrQLenPdf::36                     0                       # What write queue length does an incoming req see
system.mem_ctrls0.wrQLenPdf::37                     0                       # What write queue length does an incoming req see
system.mem_ctrls0.wrQLenPdf::38                     0                       # What write queue length does an incoming req see
system.mem_ctrls0.wrQLenPdf::39                     0                       # What write queue length does an incoming req see
system.mem_ctrls0.wrQLenPdf::40                     0                       # What write queue length does an incoming req see
system.mem_ctrls0.wrQLenPdf::41                     0                       # What write queue length does an incoming req see
system.mem_ctrls0.wrQLenPdf::42                     0                       # What write queue length does an incoming req see
system.mem_ctrls0.wrQLenPdf::43                     0                       # What write queue length does an incoming req see
system.mem_ctrls0.wrQLenPdf::44                     0                       # What write queue length does an incoming req see
system.mem_ctrls0.wrQLenPdf::45                     0                       # What write queue length does an incoming req see
system.mem_ctrls0.wrQLenPdf::46                     0                       # What write queue length does an incoming req see
system.mem_ctrls0.wrQLenPdf::47                     0                       # What write queue length does an incoming req see
system.mem_ctrls0.wrQLenPdf::48                     0                       # What write queue length does an incoming req see
system.mem_ctrls0.wrQLenPdf::49                     0                       # What write queue length does an incoming req see
system.mem_ctrls0.wrQLenPdf::50                     0                       # What write queue length does an incoming req see
system.mem_ctrls0.wrQLenPdf::51                     0                       # What write queue length does an incoming req see
system.mem_ctrls0.wrQLenPdf::52                     0                       # What write queue length does an incoming req see
system.mem_ctrls0.wrQLenPdf::53                     0                       # What write queue length does an incoming req see
system.mem_ctrls0.wrQLenPdf::54                     0                       # What write queue length does an incoming req see
system.mem_ctrls0.wrQLenPdf::55                     0                       # What write queue length does an incoming req see
system.mem_ctrls0.wrQLenPdf::56                     0                       # What write queue length does an incoming req see
system.mem_ctrls0.wrQLenPdf::57                     0                       # What write queue length does an incoming req see
system.mem_ctrls0.wrQLenPdf::58                     0                       # What write queue length does an incoming req see
system.mem_ctrls0.wrQLenPdf::59                     0                       # What write queue length does an incoming req see
system.mem_ctrls0.wrQLenPdf::60                     0                       # What write queue length does an incoming req see
system.mem_ctrls0.wrQLenPdf::61                     0                       # What write queue length does an incoming req see
system.mem_ctrls0.wrQLenPdf::62                     0                       # What write queue length does an incoming req see
system.mem_ctrls0.wrQLenPdf::63                     0                       # What write queue length does an incoming req see
system.mem_ctrls0.bytesPerActivate::samples      1968349                       # Bytes accessed per row activation
system.mem_ctrls0.bytesPerActivate::mean    70.481777                       # Bytes accessed per row activation
system.mem_ctrls0.bytesPerActivate::gmean    67.644979                       # Bytes accessed per row activation
system.mem_ctrls0.bytesPerActivate::stdev    31.360462                       # Bytes accessed per row activation
system.mem_ctrls0.bytesPerActivate::0-127      1849986     93.99%     93.99% # Bytes accessed per row activation
system.mem_ctrls0.bytesPerActivate::128-255        97658      4.96%     98.95% # Bytes accessed per row activation
system.mem_ctrls0.bytesPerActivate::256-383        16577      0.84%     99.79% # Bytes accessed per row activation
system.mem_ctrls0.bytesPerActivate::384-511         3452      0.18%     99.97% # Bytes accessed per row activation
system.mem_ctrls0.bytesPerActivate::512-639          563      0.03%     99.99% # Bytes accessed per row activation
system.mem_ctrls0.bytesPerActivate::640-767           87      0.00%    100.00% # Bytes accessed per row activation
system.mem_ctrls0.bytesPerActivate::768-895           17      0.00%    100.00% # Bytes accessed per row activation
system.mem_ctrls0.bytesPerActivate::896-1023            4      0.00%    100.00% # Bytes accessed per row activation
system.mem_ctrls0.bytesPerActivate::1024-1151            5      0.00%    100.00% # Bytes accessed per row activation
system.mem_ctrls0.bytesPerActivate::total      1968349                       # Bytes accessed per row activation
system.mem_ctrls0.rdPerTurnAround::samples        31535                       # Reads before turning the bus around for writes
system.mem_ctrls0.rdPerTurnAround::mean     51.418424                       # Reads before turning the bus around for writes
system.mem_ctrls0.rdPerTurnAround::gmean    48.521896                       # Reads before turning the bus around for writes
system.mem_ctrls0.rdPerTurnAround::stdev   115.856868                       # Reads before turning the bus around for writes
system.mem_ctrls0.rdPerTurnAround::0-1023        31531     99.99%     99.99% # Reads before turning the bus around for writes
system.mem_ctrls0.rdPerTurnAround::1024-2047            2      0.01%     99.99% # Reads before turning the bus around for writes
system.mem_ctrls0.rdPerTurnAround::2048-3071            1      0.00%    100.00% # Reads before turning the bus around for writes
system.mem_ctrls0.rdPerTurnAround::19456-20479            1      0.00%    100.00% # Reads before turning the bus around for writes
system.mem_ctrls0.rdPerTurnAround::total        31535                       # Reads before turning the bus around for writes
system.mem_ctrls0.wrPerTurnAround::samples        31535                       # Writes before turning the bus around for reads
system.mem_ctrls0.wrPerTurnAround::mean     17.320438                       # Writes before turning the bus around for reads
system.mem_ctrls0.wrPerTurnAround::gmean    17.290719                       # Writes before turning the bus around for reads
system.mem_ctrls0.wrPerTurnAround::stdev     1.006936                       # Writes before turning the bus around for reads
system.mem_ctrls0.wrPerTurnAround::16           10992     34.86%     34.86% # Writes before turning the bus around for reads
system.mem_ctrls0.wrPerTurnAround::17             868      2.75%     37.61% # Writes before turning the bus around for reads
system.mem_ctrls0.wrPerTurnAround::18           18356     58.21%     95.82% # Writes before turning the bus around for reads
system.mem_ctrls0.wrPerTurnAround::19            1230      3.90%     99.72% # Writes before turning the bus around for reads
system.mem_ctrls0.wrPerTurnAround::20              82      0.26%     99.98% # Writes before turning the bus around for reads
system.mem_ctrls0.wrPerTurnAround::21               5      0.02%     99.99% # Writes before turning the bus around for reads
system.mem_ctrls0.wrPerTurnAround::22               1      0.00%    100.00% # Writes before turning the bus around for reads
system.mem_ctrls0.wrPerTurnAround::27               1      0.00%    100.00% # Writes before turning the bus around for reads
system.mem_ctrls0.wrPerTurnAround::total        31535                       # Writes before turning the bus around for reads
system.mem_ctrls0.totQLat                 88706805098                       # Total ticks spent queuing
system.mem_ctrls0.totMemAccLat           119110080098                       # Total ticks spent from burst creation until serviced by the DRAM
system.mem_ctrls0.totBusLat                8107540000                       # Total ticks spent in databus transfers
system.mem_ctrls0.avgQLat                    54706.36                       # Average queueing delay per DRAM burst
system.mem_ctrls0.avgBusLat                   5000.00                       # Average bus latency per DRAM burst
system.mem_ctrls0.avgMemAccLat               73456.36                       # Average memory access latency per DRAM burst
system.mem_ctrls0.avgRdBW                       60.40                       # Average DRAM read bandwidth in MiByte/s
system.mem_ctrls0.avgWrBW                       20.35                       # Average achieved write bandwidth in MiByte/s
system.mem_ctrls0.avgRdBWSys                    60.41                       # Average system read bandwidth in MiByte/s
system.mem_ctrls0.avgWrBWSys                    20.35                       # Average system write bandwidth in MiByte/s
system.mem_ctrls0.peakBW                     12800.00                       # Theoretical peak bandwidth in MiByte/s
system.mem_ctrls0.busUtil                        0.63                       # Data bus utilization in percentage
system.mem_ctrls0.busUtilRead                    0.47                       # Data bus utilization in percentage for reads
system.mem_ctrls0.busUtilWrite                   0.16                       # Data bus utilization in percentage for writes
system.mem_ctrls0.avgRdQLen                      1.01                       # Average read queue length when enqueuing
system.mem_ctrls0.avgWrQLen                     24.36                       # Average write queue length when enqueuing
system.mem_ctrls0.readRowHits                   24323                       # Number of row buffer hits during reads
system.mem_ctrls0.writeRowHits                 175028                       # Number of row buffer hits during writes
system.mem_ctrls0.readRowHitRate                 1.50                       # Row buffer hit rate for reads
system.mem_ctrls0.writeRowHitRate               32.04                       # Row buffer hit rate for writes
system.mem_ctrls0.avgGap                    792511.75                       # Average gap between requests
system.mem_ctrls0.pageHitRate                    9.20                       # Row buffer hit rate, read and write combined
system.mem_ctrls0_0.actEnergy              7095275040                       # Energy for activate commands per rank (pJ)
system.mem_ctrls0_0.preEnergy              3771216735                       # Energy for precharge commands per rank (pJ)
system.mem_ctrls0_0.readEnergy             5853793260                       # Energy for read commands per rank (pJ)
system.mem_ctrls0_0.writeEnergy            1433866140                       # Energy for write commands per rank (pJ)
system.mem_ctrls0_0.refreshEnergy        135180233760.000031                       # Energy for refresh commands per rank (pJ)
system.mem_ctrls0_0.actBackEnergy         68571295830                       # Energy for active background per rank (pJ)
system.mem_ctrls0_0.preBackEnergy          6969470400                       # Energy for precharge background per rank (pJ)
system.mem_ctrls0_0.actPowerDownEnergy   369030235050                       # Energy for active power-down per rank (pJ)
system.mem_ctrls0_0.prePowerDownEnergy   186848377920                       # Energy for precharge power-down per rank (pJ)
system.mem_ctrls0_0.selfRefreshEnergy     79820630565                       # Energy for self refresh per rank (pJ)
system.mem_ctrls0_0.totalEnergy          864642903030                       # Total energy per rank (pJ)
system.mem_ctrls0_0.averagePower           503.235495                       # Core power per rank (mW)
system.mem_ctrls0_0.totalIdleTime        1549492257925                       # Total Idle time Per DRAM Rank
system.mem_ctrls0_0.memoryStateTime::IDLE   9972458654                       # Time in different power states
system.mem_ctrls0_0.memoryStateTime::REF  57394178000                       # Time in different power states
system.mem_ctrls0_0.memoryStateTime::SREF 253628622028                       # Time in different power states
system.mem_ctrls0_0.memoryStateTime::PRE_PDN 486583737004                       # Time in different power states
system.mem_ctrls0_0.memoryStateTime::ACT 101308225952                       # Time in different power states
system.mem_ctrls0_0.memoryStateTime::ACT_PDN 809280316603                       # Time in different power states
system.mem_ctrls0_1.actEnergy              6958793940                       # Energy for activate commands per rank (pJ)
system.mem_ctrls0_1.preEnergy              3698667720                       # Energy for precharge commands per rank (pJ)
system.mem_ctrls0_1.readEnergy             5723773860                       # Energy for read commands per rank (pJ)
system.mem_ctrls0_1.writeEnergy            1417297860                       # Energy for write commands per rank (pJ)
system.mem_ctrls0_1.refreshEnergy        137488821600.000031                       # Energy for refresh commands per rank (pJ)
system.mem_ctrls0_1.actBackEnergy         67854118980                       # Energy for active background per rank (pJ)
system.mem_ctrls0_1.preBackEnergy          6778084320                       # Energy for precharge background per rank (pJ)
system.mem_ctrls0_1.actPowerDownEnergy   381580302390                       # Energy for active power-down per rank (pJ)
system.mem_ctrls0_1.prePowerDownEnergy   191531868480                       # Energy for precharge power-down per rank (pJ)
system.mem_ctrls0_1.selfRefreshEnergy     70148666565                       # Energy for self refresh per rank (pJ)
system.mem_ctrls0_1.totalEnergy          873258333045                       # Total energy per rank (pJ)
system.mem_ctrls0_1.averagePower           508.249806                       # Core power per rank (mW)
system.mem_ctrls0_1.totalIdleTime        1551533645504                       # Total Idle time Per DRAM Rank
system.mem_ctrls0_1.memoryStateTime::IDLE   9713873653                       # Time in different power states
system.mem_ctrls0_1.memoryStateTime::REF  58364636000                       # Time in different power states
system.mem_ctrls0_1.memoryStateTime::SREF 215960071398                       # Time in different power states
system.mem_ctrls0_1.memoryStateTime::PRE_PDN 498778351272                       # Time in different power states
system.mem_ctrls0_1.memoryStateTime::ACT  98554242764                       # Time in different power states
system.mem_ctrls0_1.memoryStateTime::ACT_PDN 836796363154                       # Time in different power states
system.mem_ctrls1.pwrStateResidencyTicks::UNDEFINED 35021545462602                       # Cumulative time (in ticks) in various power states
system.mem_ctrls1.bytes_read::cpu.inst             64                       # Number of bytes read from this memory
system.mem_ctrls1.bytes_read::cpu.data            192                       # Number of bytes read from this memory
system.mem_ctrls1.bytes_read::switch_cpus.inst         8128                       # Number of bytes read from this memory
system.mem_ctrls1.bytes_read::switch_cpus.data     86105792                       # Number of bytes read from this memory
system.mem_ctrls1.bytes_read::switch_cpus_1.data     17653568                       # Number of bytes read from this memory
system.mem_ctrls1.bytes_read::total         103767744                       # Number of bytes read from this memory
system.mem_ctrls1.bytes_inst_read::cpu.inst           64                       # Number of instructions bytes read from this memory
system.mem_ctrls1.bytes_inst_read::switch_cpus.inst         8128                       # Number of instructions bytes read from this memory
system.mem_ctrls1.bytes_inst_read::total         8192                       # Number of instructions bytes read from this memory
system.mem_ctrls1.bytes_written::writebacks     34943296                       # Number of bytes written to this memory
system.mem_ctrls1.bytes_written::total       34943296                       # Number of bytes written to this memory
system.mem_ctrls1.num_reads::cpu.inst               1                       # Number of read requests responded to by this memory
system.mem_ctrls1.num_reads::cpu.data               3                       # Number of read requests responded to by this memory
system.mem_ctrls1.num_reads::switch_cpus.inst          127                       # Number of read requests responded to by this memory
system.mem_ctrls1.num_reads::switch_cpus.data      1345403                       # Number of read requests responded to by this memory
system.mem_ctrls1.num_reads::switch_cpus_1.data       275837                       # Number of read requests responded to by this memory
system.mem_ctrls1.num_reads::total            1621371                       # Number of read requests responded to by this memory
system.mem_ctrls1.num_writes::writebacks       545989                       # Number of write requests responded to by this memory
system.mem_ctrls1.num_writes::total            545989                       # Number of write requests responded to by this memory
system.mem_ctrls1.bw_read::cpu.inst                37                       # Total read bandwidth from this memory (bytes/s)
system.mem_ctrls1.bw_read::cpu.data               112                       # Total read bandwidth from this memory (bytes/s)
system.mem_ctrls1.bw_read::switch_cpus.inst         4731                       # Total read bandwidth from this memory (bytes/s)
system.mem_ctrls1.bw_read::switch_cpus.data     50114899                       # Total read bandwidth from this memory (bytes/s)
system.mem_ctrls1.bw_read::switch_cpus_1.data     10274649                       # Total read bandwidth from this memory (bytes/s)
system.mem_ctrls1.bw_read::total             60394427                       # Total read bandwidth from this memory (bytes/s)
system.mem_ctrls1.bw_inst_read::cpu.inst           37                       # Instruction read bandwidth from this memory (bytes/s)
system.mem_ctrls1.bw_inst_read::switch_cpus.inst         4731                       # Instruction read bandwidth from this memory (bytes/s)
system.mem_ctrls1.bw_inst_read::total            4768                       # Instruction read bandwidth from this memory (bytes/s)
system.mem_ctrls1.bw_write::writebacks       20337537                       # Write bandwidth from this memory (bytes/s)
system.mem_ctrls1.bw_write::total            20337537                       # Write bandwidth from this memory (bytes/s)
system.mem_ctrls1.bw_total::writebacks       20337537                       # Total bandwidth to/from this memory (bytes/s)
system.mem_ctrls1.bw_total::cpu.inst               37                       # Total bandwidth to/from this memory (bytes/s)
system.mem_ctrls1.bw_total::cpu.data              112                       # Total bandwidth to/from this memory (bytes/s)
system.mem_ctrls1.bw_total::switch_cpus.inst         4731                       # Total bandwidth to/from this memory (bytes/s)
system.mem_ctrls1.bw_total::switch_cpus.data     50114899                       # Total bandwidth to/from this memory (bytes/s)
system.mem_ctrls1.bw_total::switch_cpus_1.data     10274649                       # Total bandwidth to/from this memory (bytes/s)
system.mem_ctrls1.bw_total::total            80731964                       # Total bandwidth to/from this memory (bytes/s)
system.mem_ctrls1.readReqs                    1621371                       # Number of read requests accepted
system.mem_ctrls1.writeReqs                    545989                       # Number of write requests accepted
system.mem_ctrls1.readBursts                  1621371                       # Number of DRAM read bursts, including those serviced by the write queue
system.mem_ctrls1.writeBursts                  545989                       # Number of DRAM write bursts, including those merged in the write queue
system.mem_ctrls1.bytesReadDRAM             103749056                       # Total number of bytes read from DRAM
system.mem_ctrls1.bytesReadWrQ                  18688                       # Total number of bytes read from write queue
system.mem_ctrls1.bytesWritten               34942016                       # Total number of bytes written to DRAM
system.mem_ctrls1.bytesReadSys              103767744                       # Total read bytes from the system interface side
system.mem_ctrls1.bytesWrittenSys            34943296                       # Total written bytes from the system interface side
system.mem_ctrls1.servicedByWrQ                   292                       # Number of DRAM read bursts serviced by the write queue
system.mem_ctrls1.mergedWrBursts                    0                       # Number of DRAM write bursts merged with an existing one
system.mem_ctrls1.neitherReadNorWriteReqs            0                       # Number of requests that are neither read nor write
system.mem_ctrls1.perBankRdBursts::0           105587                       # Per bank write bursts
system.mem_ctrls1.perBankRdBursts::1           103270                       # Per bank write bursts
system.mem_ctrls1.perBankRdBursts::2           103700                       # Per bank write bursts
system.mem_ctrls1.perBankRdBursts::3           101223                       # Per bank write bursts
system.mem_ctrls1.perBankRdBursts::4           101684                       # Per bank write bursts
system.mem_ctrls1.perBankRdBursts::5           101530                       # Per bank write bursts
system.mem_ctrls1.perBankRdBursts::6           100931                       # Per bank write bursts
system.mem_ctrls1.perBankRdBursts::7           101587                       # Per bank write bursts
system.mem_ctrls1.perBankRdBursts::8           100424                       # Per bank write bursts
system.mem_ctrls1.perBankRdBursts::9            99467                       # Per bank write bursts
system.mem_ctrls1.perBankRdBursts::10           99731                       # Per bank write bursts
system.mem_ctrls1.perBankRdBursts::11          100067                       # Per bank write bursts
system.mem_ctrls1.perBankRdBursts::12           98764                       # Per bank write bursts
system.mem_ctrls1.perBankRdBursts::13           98763                       # Per bank write bursts
system.mem_ctrls1.perBankRdBursts::14          100787                       # Per bank write bursts
system.mem_ctrls1.perBankRdBursts::15          103564                       # Per bank write bursts
system.mem_ctrls1.perBankWrBursts::0            36381                       # Per bank write bursts
system.mem_ctrls1.perBankWrBursts::1            35311                       # Per bank write bursts
system.mem_ctrls1.perBankWrBursts::2            34735                       # Per bank write bursts
system.mem_ctrls1.perBankWrBursts::3            33619                       # Per bank write bursts
system.mem_ctrls1.perBankWrBursts::4            33541                       # Per bank write bursts
system.mem_ctrls1.perBankWrBursts::5            33513                       # Per bank write bursts
system.mem_ctrls1.perBankWrBursts::6            33465                       # Per bank write bursts
system.mem_ctrls1.perBankWrBursts::7            33966                       # Per bank write bursts
system.mem_ctrls1.perBankWrBursts::8            33529                       # Per bank write bursts
system.mem_ctrls1.perBankWrBursts::9            33368                       # Per bank write bursts
system.mem_ctrls1.perBankWrBursts::10           33794                       # Per bank write bursts
system.mem_ctrls1.perBankWrBursts::11           33751                       # Per bank write bursts
system.mem_ctrls1.perBankWrBursts::12           33506                       # Per bank write bursts
system.mem_ctrls1.perBankWrBursts::13           33590                       # Per bank write bursts
system.mem_ctrls1.perBankWrBursts::14           34392                       # Per bank write bursts
system.mem_ctrls1.perBankWrBursts::15           35508                       # Per bank write bursts
system.mem_ctrls1.numRdRetry                        0                       # Number of times read queue was full causing retry
system.mem_ctrls1.numWrRetry                        0                       # Number of times write queue was full causing retry
system.mem_ctrls1.totGap                 1718166936843                       # Total gap between requests
system.mem_ctrls1.readPktSize::0                    0                       # Read request sizes (log2)
system.mem_ctrls1.readPktSize::1                    0                       # Read request sizes (log2)
system.mem_ctrls1.readPktSize::2                    0                       # Read request sizes (log2)
system.mem_ctrls1.readPktSize::3                    0                       # Read request sizes (log2)
system.mem_ctrls1.readPktSize::4                    0                       # Read request sizes (log2)
system.mem_ctrls1.readPktSize::5                    0                       # Read request sizes (log2)
system.mem_ctrls1.readPktSize::6              1621371                       # Read request sizes (log2)
system.mem_ctrls1.writePktSize::0                   0                       # Write request sizes (log2)
system.mem_ctrls1.writePktSize::1                   0                       # Write request sizes (log2)
system.mem_ctrls1.writePktSize::2                   0                       # Write request sizes (log2)
system.mem_ctrls1.writePktSize::3                   0                       # Write request sizes (log2)
system.mem_ctrls1.writePktSize::4                   0                       # Write request sizes (log2)
system.mem_ctrls1.writePktSize::5                   0                       # Write request sizes (log2)
system.mem_ctrls1.writePktSize::6              545989                       # Write request sizes (log2)
system.mem_ctrls1.rdQLenPdf::0                1536906                       # What read queue length does an incoming req see
system.mem_ctrls1.rdQLenPdf::1                  75677                       # What read queue length does an incoming req see
system.mem_ctrls1.rdQLenPdf::2                   8169                       # What read queue length does an incoming req see
system.mem_ctrls1.rdQLenPdf::3                    327                       # What read queue length does an incoming req see
system.mem_ctrls1.rdQLenPdf::4                      0                       # What read queue length does an incoming req see
system.mem_ctrls1.rdQLenPdf::5                      0                       # What read queue length does an incoming req see
system.mem_ctrls1.rdQLenPdf::6                      0                       # What read queue length does an incoming req see
system.mem_ctrls1.rdQLenPdf::7                      0                       # What read queue length does an incoming req see
system.mem_ctrls1.rdQLenPdf::8                      0                       # What read queue length does an incoming req see
system.mem_ctrls1.rdQLenPdf::9                      0                       # What read queue length does an incoming req see
system.mem_ctrls1.rdQLenPdf::10                     0                       # What read queue length does an incoming req see
system.mem_ctrls1.rdQLenPdf::11                     0                       # What read queue length does an incoming req see
system.mem_ctrls1.rdQLenPdf::12                     0                       # What read queue length does an incoming req see
system.mem_ctrls1.rdQLenPdf::13                     0                       # What read queue length does an incoming req see
system.mem_ctrls1.rdQLenPdf::14                     0                       # What read queue length does an incoming req see
system.mem_ctrls1.rdQLenPdf::15                     0                       # What read queue length does an incoming req see
system.mem_ctrls1.rdQLenPdf::16                     0                       # What read queue length does an incoming req see
system.mem_ctrls1.rdQLenPdf::17                     0                       # What read queue length does an incoming req see
system.mem_ctrls1.rdQLenPdf::18                     0                       # What read queue length does an incoming req see
system.mem_ctrls1.rdQLenPdf::19                     0                       # What read queue length does an incoming req see
system.mem_ctrls1.rdQLenPdf::20                     0                       # What read queue length does an incoming req see
system.mem_ctrls1.rdQLenPdf::21                     0                       # What read queue length does an incoming req see
system.mem_ctrls1.rdQLenPdf::22                     0                       # What read queue length does an incoming req see
system.mem_ctrls1.rdQLenPdf::23                     0                       # What read queue length does an incoming req see
system.mem_ctrls1.rdQLenPdf::24                     0                       # What read queue length does an incoming req see
system.mem_ctrls1.rdQLenPdf::25                     0                       # What read queue length does an incoming req see
system.mem_ctrls1.rdQLenPdf::26                     0                       # What read queue length does an incoming req see
system.mem_ctrls1.rdQLenPdf::27                     0                       # What read queue length does an incoming req see
system.mem_ctrls1.rdQLenPdf::28                     0                       # What read queue length does an incoming req see
system.mem_ctrls1.rdQLenPdf::29                     0                       # What read queue length does an incoming req see
system.mem_ctrls1.rdQLenPdf::30                     0                       # What read queue length does an incoming req see
system.mem_ctrls1.rdQLenPdf::31                     0                       # What read queue length does an incoming req see
system.mem_ctrls1.wrQLenPdf::0                      2                       # What write queue length does an incoming req see
system.mem_ctrls1.wrQLenPdf::1                      2                       # What write queue length does an incoming req see
system.mem_ctrls1.wrQLenPdf::2                      2                       # What write queue length does an incoming req see
system.mem_ctrls1.wrQLenPdf::3                      2                       # What write queue length does an incoming req see
system.mem_ctrls1.wrQLenPdf::4                      2                       # What write queue length does an incoming req see
system.mem_ctrls1.wrQLenPdf::5                      2                       # What write queue length does an incoming req see
system.mem_ctrls1.wrQLenPdf::6                      2                       # What write queue length does an incoming req see
system.mem_ctrls1.wrQLenPdf::7                      2                       # What write queue length does an incoming req see
system.mem_ctrls1.wrQLenPdf::8                      2                       # What write queue length does an incoming req see
system.mem_ctrls1.wrQLenPdf::9                      2                       # What write queue length does an incoming req see
system.mem_ctrls1.wrQLenPdf::10                     2                       # What write queue length does an incoming req see
system.mem_ctrls1.wrQLenPdf::11                     2                       # What write queue length does an incoming req see
system.mem_ctrls1.wrQLenPdf::12                     2                       # What write queue length does an incoming req see
system.mem_ctrls1.wrQLenPdf::13                     2                       # What write queue length does an incoming req see
system.mem_ctrls1.wrQLenPdf::14                     2                       # What write queue length does an incoming req see
system.mem_ctrls1.wrQLenPdf::15                 19824                       # What write queue length does an incoming req see
system.mem_ctrls1.wrQLenPdf::16                 20756                       # What write queue length does an incoming req see
system.mem_ctrls1.wrQLenPdf::17                 30558                       # What write queue length does an incoming req see
system.mem_ctrls1.wrQLenPdf::18                 31520                       # What write queue length does an incoming req see
system.mem_ctrls1.wrQLenPdf::19                 31590                       # What write queue length does an incoming req see
system.mem_ctrls1.wrQLenPdf::20                 31607                       # What write queue length does an incoming req see
system.mem_ctrls1.wrQLenPdf::21                 31650                       # What write queue length does an incoming req see
system.mem_ctrls1.wrQLenPdf::22                 31883                       # What write queue length does an incoming req see
system.mem_ctrls1.wrQLenPdf::23                 31827                       # What write queue length does an incoming req see
system.mem_ctrls1.wrQLenPdf::24                 31737                       # What write queue length does an incoming req see
system.mem_ctrls1.wrQLenPdf::25                 31695                       # What write queue length does an incoming req see
system.mem_ctrls1.wrQLenPdf::26                 31666                       # What write queue length does an incoming req see
system.mem_ctrls1.wrQLenPdf::27                 31661                       # What write queue length does an incoming req see
system.mem_ctrls1.wrQLenPdf::28                 31647                       # What write queue length does an incoming req see
system.mem_ctrls1.wrQLenPdf::29                 31624                       # What write queue length does an incoming req see
system.mem_ctrls1.wrQLenPdf::30                 31631                       # What write queue length does an incoming req see
system.mem_ctrls1.wrQLenPdf::31                 31514                       # What write queue length does an incoming req see
system.mem_ctrls1.wrQLenPdf::32                 31502                       # What write queue length does an incoming req see
system.mem_ctrls1.wrQLenPdf::33                    61                       # What write queue length does an incoming req see
system.mem_ctrls1.wrQLenPdf::34                     6                       # What write queue length does an incoming req see
system.mem_ctrls1.wrQLenPdf::35                     0                       # What write queue length does an incoming req see
system.mem_ctrls1.wrQLenPdf::36                     0                       # What write queue length does an incoming req see
system.mem_ctrls1.wrQLenPdf::37                     0                       # What write queue length does an incoming req see
system.mem_ctrls1.wrQLenPdf::38                     0                       # What write queue length does an incoming req see
system.mem_ctrls1.wrQLenPdf::39                     0                       # What write queue length does an incoming req see
system.mem_ctrls1.wrQLenPdf::40                     0                       # What write queue length does an incoming req see
system.mem_ctrls1.wrQLenPdf::41                     0                       # What write queue length does an incoming req see
system.mem_ctrls1.wrQLenPdf::42                     0                       # What write queue length does an incoming req see
system.mem_ctrls1.wrQLenPdf::43                     0                       # What write queue length does an incoming req see
system.mem_ctrls1.wrQLenPdf::44                     0                       # What write queue length does an incoming req see
system.mem_ctrls1.wrQLenPdf::45                     0                       # What write queue length does an incoming req see
system.mem_ctrls1.wrQLenPdf::46                     0                       # What write queue length does an incoming req see
system.mem_ctrls1.wrQLenPdf::47                     0                       # What write queue length does an incoming req see
system.mem_ctrls1.wrQLenPdf::48                     0                       # What write queue length does an incoming req see
system.mem_ctrls1.wrQLenPdf::49                     0                       # What write queue length does an incoming req see
system.mem_ctrls1.wrQLenPdf::50                     0                       # What write queue length does an incoming req see
system.mem_ctrls1.wrQLenPdf::51                     0                       # What write queue length does an incoming req see
system.mem_ctrls1.wrQLenPdf::52                     0                       # What write queue length does an incoming req see
system.mem_ctrls1.wrQLenPdf::53                     0                       # What write queue length does an incoming req see
system.mem_ctrls1.wrQLenPdf::54                     0                       # What write queue length does an incoming req see
system.mem_ctrls1.wrQLenPdf::55                     0                       # What write queue length does an incoming req see
system.mem_ctrls1.wrQLenPdf::56                     0                       # What write queue length does an incoming req see
system.mem_ctrls1.wrQLenPdf::57                     0                       # What write queue length does an incoming req see
system.mem_ctrls1.wrQLenPdf::58                     0                       # What write queue length does an incoming req see
system.mem_ctrls1.wrQLenPdf::59                     0                       # What write queue length does an incoming req see
system.mem_ctrls1.wrQLenPdf::60                     0                       # What write queue length does an incoming req see
system.mem_ctrls1.wrQLenPdf::61                     0                       # What write queue length does an incoming req see
system.mem_ctrls1.wrQLenPdf::62                     0                       # What write queue length does an incoming req see
system.mem_ctrls1.wrQLenPdf::63                     0                       # What write queue length does an incoming req see
system.mem_ctrls1.bytesPerActivate::samples      1967305                       # Bytes accessed per row activation
system.mem_ctrls1.bytesPerActivate::mean    70.497774                       # Bytes accessed per row activation
system.mem_ctrls1.bytesPerActivate::gmean    67.644865                       # Bytes accessed per row activation
system.mem_ctrls1.bytesPerActivate::stdev    31.508748                       # Bytes accessed per row activation
system.mem_ctrls1.bytesPerActivate::0-127      1849354     94.00%     94.00% # Bytes accessed per row activation
system.mem_ctrls1.bytesPerActivate::128-255        97005      4.93%     98.94% # Bytes accessed per row activation
system.mem_ctrls1.bytesPerActivate::256-383        16720      0.85%     99.79% # Bytes accessed per row activation
system.mem_ctrls1.bytesPerActivate::384-511         3538      0.18%     99.97% # Bytes accessed per row activation
system.mem_ctrls1.bytesPerActivate::512-639          574      0.03%     99.99% # Bytes accessed per row activation
system.mem_ctrls1.bytesPerActivate::640-767           80      0.00%    100.00% # Bytes accessed per row activation
system.mem_ctrls1.bytesPerActivate::768-895           27      0.00%    100.00% # Bytes accessed per row activation
system.mem_ctrls1.bytesPerActivate::896-1023            3      0.00%    100.00% # Bytes accessed per row activation
system.mem_ctrls1.bytesPerActivate::1024-1151            4      0.00%    100.00% # Bytes accessed per row activation
system.mem_ctrls1.bytesPerActivate::total      1967305                       # Bytes accessed per row activation
system.mem_ctrls1.rdPerTurnAround::samples        31490                       # Reads before turning the bus around for writes
system.mem_ctrls1.rdPerTurnAround::mean     51.479073                       # Reads before turning the bus around for writes
system.mem_ctrls1.rdPerTurnAround::gmean    48.601021                       # Reads before turning the bus around for writes
system.mem_ctrls1.rdPerTurnAround::stdev   115.758643                       # Reads before turning the bus around for writes
system.mem_ctrls1.rdPerTurnAround::0-1023        31487     99.99%     99.99% # Reads before turning the bus around for writes
system.mem_ctrls1.rdPerTurnAround::1024-2047            2      0.01%    100.00% # Reads before turning the bus around for writes
system.mem_ctrls1.rdPerTurnAround::19456-20479            1      0.00%    100.00% # Reads before turning the bus around for writes
system.mem_ctrls1.rdPerTurnAround::total        31490                       # Reads before turning the bus around for writes
system.mem_ctrls1.wrPerTurnAround::samples        31490                       # Writes before turning the bus around for reads
system.mem_ctrls1.wrPerTurnAround::mean     17.337853                       # Writes before turning the bus around for reads
system.mem_ctrls1.wrPerTurnAround::gmean    17.308392                       # Writes before turning the bus around for reads
system.mem_ctrls1.wrPerTurnAround::stdev     1.002341                       # Writes before turning the bus around for reads
system.mem_ctrls1.wrPerTurnAround::16           10715     34.03%     34.03% # Writes before turning the bus around for reads
system.mem_ctrls1.wrPerTurnAround::17             869      2.76%     36.79% # Writes before turning the bus around for reads
system.mem_ctrls1.wrPerTurnAround::18           18571     58.97%     95.76% # Writes before turning the bus around for reads
system.mem_ctrls1.wrPerTurnAround::19            1235      3.92%     99.68% # Writes before turning the bus around for reads
system.mem_ctrls1.wrPerTurnAround::20              91      0.29%     99.97% # Writes before turning the bus around for reads
system.mem_ctrls1.wrPerTurnAround::21               7      0.02%     99.99% # Writes before turning the bus around for reads
system.mem_ctrls1.wrPerTurnAround::22               1      0.00%    100.00% # Writes before turning the bus around for reads
system.mem_ctrls1.wrPerTurnAround::24               1      0.00%    100.00% # Writes before turning the bus around for reads
system.mem_ctrls1.wrPerTurnAround::total        31490                       # Writes before turning the bus around for reads
system.mem_ctrls1.totQLat                 88548196230                       # Total ticks spent queuing
system.mem_ctrls1.totMemAccLat           118943427480                       # Total ticks spent from burst creation until serviced by the DRAM
system.mem_ctrls1.totBusLat                8105395000                       # Total ticks spent in databus transfers
system.mem_ctrls1.avgQLat                    54623.00                       # Average queueing delay per DRAM burst
system.mem_ctrls1.avgBusLat                   5000.00                       # Average bus latency per DRAM burst
system.mem_ctrls1.avgMemAccLat               73373.00                       # Average memory access latency per DRAM burst
system.mem_ctrls1.avgRdBW                       60.38                       # Average DRAM read bandwidth in MiByte/s
system.mem_ctrls1.avgWrBW                       20.34                       # Average achieved write bandwidth in MiByte/s
system.mem_ctrls1.avgRdBWSys                    60.39                       # Average system read bandwidth in MiByte/s
system.mem_ctrls1.avgWrBWSys                    20.34                       # Average system write bandwidth in MiByte/s
system.mem_ctrls1.peakBW                     12800.00                       # Theoretical peak bandwidth in MiByte/s
system.mem_ctrls1.busUtil                        0.63                       # Data bus utilization in percentage
system.mem_ctrls1.busUtilRead                    0.47                       # Data bus utilization in percentage for reads
system.mem_ctrls1.busUtilWrite                   0.16                       # Data bus utilization in percentage for writes
system.mem_ctrls1.avgRdQLen                      1.01                       # Average read queue length when enqueuing
system.mem_ctrls1.avgWrQLen                     24.34                       # Average write queue length when enqueuing
system.mem_ctrls1.readRowHits                   24006                       # Number of row buffer hits during reads
system.mem_ctrls1.writeRowHits                 175730                       # Number of row buffer hits during writes
system.mem_ctrls1.readRowHitRate                 1.48                       # Row buffer hit rate for reads
system.mem_ctrls1.writeRowHitRate               32.19                       # Row buffer hit rate for writes
system.mem_ctrls1.avgGap                    792746.45                       # Average gap between requests
system.mem_ctrls1.pageHitRate                    9.22                       # Row buffer hit rate, read and write combined
system.mem_ctrls1_0.actEnergy              7086071580                       # Energy for activate commands per rank (pJ)
system.mem_ctrls1_0.preEnergy              3766324980                       # Energy for precharge commands per rank (pJ)
system.mem_ctrls1_0.readEnergy             5851315680                       # Energy for read commands per rank (pJ)
system.mem_ctrls1_0.writeEnergy            1433051820                       # Energy for write commands per rank (pJ)
system.mem_ctrls1_0.refreshEnergy        135215882880.000031                       # Energy for refresh commands per rank (pJ)
system.mem_ctrls1_0.actBackEnergy         68839822830                       # Energy for active background per rank (pJ)
system.mem_ctrls1_0.preBackEnergy          6955864320                       # Energy for precharge background per rank (pJ)
system.mem_ctrls1_0.actPowerDownEnergy   369081687810                       # Energy for active power-down per rank (pJ)
system.mem_ctrls1_0.prePowerDownEnergy   186976522080                       # Energy for precharge power-down per rank (pJ)
system.mem_ctrls1_0.selfRefreshEnergy     79538428230                       # Energy for self refresh per rank (pJ)
system.mem_ctrls1_0.totalEnergy          864809623230                       # Total energy per rank (pJ)
system.mem_ctrls1_0.averagePower           503.332527                       # Core power per rank (mW)
system.mem_ctrls1_0.totalIdleTime        1548945894920                       # Total Idle time Per DRAM Rank
system.mem_ctrls1_0.memoryStateTime::IDLE   9956092310                       # Time in different power states
system.mem_ctrls1_0.memoryStateTime::REF  57409180000                       # Time in different power states
system.mem_ctrls1_0.memoryStateTime::SREF 252637152183                       # Time in different power states
system.mem_ctrls1_0.memoryStateTime::PRE_PDN 486917958758                       # Time in different power states
system.mem_ctrls1_0.memoryStateTime::ACT 101855633282                       # Time in different power states
system.mem_ctrls1_0.memoryStateTime::ACT_PDN 809391521708                       # Time in different power states
system.mem_ctrls1_1.actEnergy              6960536100                       # Energy for activate commands per rank (pJ)
system.mem_ctrls1_1.preEnergy              3699597495                       # Energy for precharge commands per rank (pJ)
system.mem_ctrls1_1.readEnergy             5723188380                       # Energy for read commands per rank (pJ)
system.mem_ctrls1_1.writeEnergy            1416906360                       # Energy for write commands per rank (pJ)
system.mem_ctrls1_1.refreshEnergy        137625886320.000031                       # Energy for refresh commands per rank (pJ)
system.mem_ctrls1_1.actBackEnergy         67586797530                       # Energy for active background per rank (pJ)
system.mem_ctrls1_1.preBackEnergy          6786116160                       # Energy for precharge background per rank (pJ)
system.mem_ctrls1_1.actPowerDownEnergy   381579186900                       # Energy for active power-down per rank (pJ)
system.mem_ctrls1_1.prePowerDownEnergy   191951544960                       # Energy for precharge power-down per rank (pJ)
system.mem_ctrls1_1.selfRefreshEnergy     70116118470                       # Energy for self refresh per rank (pJ)
system.mem_ctrls1_1.totalEnergy          873529599195                       # Total energy per rank (pJ)
system.mem_ctrls1_1.averagePower           508.407685                       # Core power per rank (mW)
system.mem_ctrls1_1.totalIdleTime        1552092499469                       # Total Idle time Per DRAM Rank
system.mem_ctrls1_1.memoryStateTime::IDLE   9751471262                       # Time in different power states
system.mem_ctrls1_1.memoryStateTime::REF  58423870000                       # Time in different power states
system.mem_ctrls1_1.memoryStateTime::SREF 215422124319                       # Time in different power states
system.mem_ctrls1_1.memoryStateTime::PRE_PDN 499873956081                       # Time in different power states
system.mem_ctrls1_1.memoryStateTime::ACT  97899461285                       # Time in different power states
system.mem_ctrls1_1.memoryStateTime::ACT_PDN 836796655294                       # Time in different power states
system.pwrStateResidencyTicks::UNDEFINED 35021545462602                       # Cumulative time (in ticks) in various power states
system.cpu.branchPred.lookups                       0                       # Number of BP lookups
system.cpu.branchPred.condPredicted                 0                       # Number of conditional branches predicted
system.cpu.branchPred.condIncorrect                 0                       # Number of conditional branches incorrect
system.cpu.branchPred.BTBLookups                    0                       # Number of BTB lookups
system.cpu.branchPred.BTBHits                       0                       # Number of BTB hits
system.cpu.branchPred.BTBCorrect                    0                       # Number of correct BTB predictions (this stat may not work properly.
system.cpu.branchPred.BTBHitPct                   nan                       # BTB Hit Percentage
system.cpu.branchPred.usedRAS                       0                       # Number of times the RAS was used to get a target.
system.cpu.branchPred.RASInCorrect                  0                       # Number of incorrect RAS predictions.
system.cpu.branchPred.indirectLookups               0                       # Number of indirect predictor lookups.
system.cpu.branchPred.indirectHits                  0                       # Number of indirect target hits.
system.cpu.branchPred.indirectMisses                0                       # Number of indirect misses.
system.cpu.branchPredindirectMispredicted            0                       # Number of mispredicted indirect branches.
system.cpu_voltage_domain.voltage                   1                       # Voltage in Volts
system.cpu_clk_domain.clock                       333                       # Clock period in ticks
system.cpu.dtb.fetch_hits                           0                       # ITB hits
system.cpu.dtb.fetch_misses                         0                       # ITB misses
system.cpu.dtb.fetch_acv                            0                       # ITB acv
system.cpu.dtb.fetch_accesses                       0                       # ITB accesses
system.cpu.dtb.read_hits                           16                       # DTB read hits
system.cpu.dtb.read_misses                          0                       # DTB read misses
system.cpu.dtb.read_acv                             0                       # DTB read access violations
system.cpu.dtb.read_accesses                       16                       # DTB read accesses
system.cpu.dtb.write_hits                           1                       # DTB write hits
system.cpu.dtb.write_misses                         0                       # DTB write misses
system.cpu.dtb.write_acv                            0                       # DTB write access violations
system.cpu.dtb.write_accesses                       1                       # DTB write accesses
system.cpu.dtb.data_hits                           17                       # DTB hits
system.cpu.dtb.data_misses                          0                       # DTB misses
system.cpu.dtb.data_acv                             0                       # DTB access violations
system.cpu.dtb.data_accesses                       17                       # DTB accesses
system.cpu.itb.fetch_hits                           4                       # ITB hits
system.cpu.itb.fetch_misses                         0                       # ITB misses
system.cpu.itb.fetch_acv                            0                       # ITB acv
system.cpu.itb.fetch_accesses                       4                       # ITB accesses
system.cpu.itb.read_hits                            0                       # DTB read hits
system.cpu.itb.read_misses                          0                       # DTB read misses
system.cpu.itb.read_acv                             0                       # DTB read access violations
system.cpu.itb.read_accesses                        0                       # DTB read accesses
system.cpu.itb.write_hits                           0                       # DTB write hits
system.cpu.itb.write_misses                         0                       # DTB write misses
system.cpu.itb.write_acv                            0                       # DTB write access violations
system.cpu.itb.write_accesses                       0                       # DTB write accesses
system.cpu.itb.data_hits                            0                       # DTB hits
system.cpu.itb.data_misses                          0                       # DTB misses
system.cpu.itb.data_acv                             0                       # DTB access violations
system.cpu.itb.data_accesses                        0                       # DTB accesses
system.cpu.workload.num_syscalls                    0                       # Number of system calls
system.cpu.pwrStateResidencyTicks::ON    1718167538241                       # Cumulative time (in ticks) in various power states
system.cpu.numCycles                             1404                       # number of cpu cycles simulated
system.cpu.numWorkItemsStarted                      0                       # number of work items this cpu started
system.cpu.numWorkItemsCompleted                    0                       # number of work items this cpu completed
system.cpu.fetch.icacheStallCycles                 65                       # Number of cycles fetch is stalled on an Icache miss
system.cpu.fetch.Insts                             17                       # Number of instructions fetch has processed
system.cpu.fetch.Cycles                             3                       # Number of cycles fetch has run and was not squashing or blocked
system.cpu.fetch.SquashCycles                       3                       # Number of cycles fetch has spent squashing
system.cpu.fetch.PendingDrainCycles                 6                       # Number of cycles fetch has spent waiting on pipes to drain
system.cpu.fetch.CacheLines                         4                       # Number of cache lines fetched
system.cpu.fetch.IcacheSquashes                     2                       # Number of outstanding Icache misses that were squashed
system.cpu.fetch.rateDist::samples                 75                       # Number of instructions fetched each cycle (Total)
system.cpu.fetch.rateDist::mean              0.226667                       # Number of instructions fetched each cycle (Total)
system.cpu.fetch.rateDist::stdev             1.300450                       # Number of instructions fetched each cycle (Total)
system.cpu.fetch.rateDist::underflows               0      0.00%      0.00% # Number of instructions fetched each cycle (Total)
system.cpu.fetch.rateDist::0                       72     96.00%     96.00% # Number of instructions fetched each cycle (Total)
system.cpu.fetch.rateDist::1                        1      1.33%     97.33% # Number of instructions fetched each cycle (Total)
system.cpu.fetch.rateDist::2                        0      0.00%     97.33% # Number of instructions fetched each cycle (Total)
system.cpu.fetch.rateDist::3                        0      0.00%     97.33% # Number of instructions fetched each cycle (Total)
system.cpu.fetch.rateDist::4                        0      0.00%     97.33% # Number of instructions fetched each cycle (Total)
system.cpu.fetch.rateDist::5                        0      0.00%     97.33% # Number of instructions fetched each cycle (Total)
system.cpu.fetch.rateDist::6                        0      0.00%     97.33% # Number of instructions fetched each cycle (Total)
system.cpu.fetch.rateDist::7                        0      0.00%     97.33% # Number of instructions fetched each cycle (Total)
system.cpu.fetch.rateDist::8                        2      2.67%    100.00% # Number of instructions fetched each cycle (Total)
[...]
system.switch_cpus_1.iq.rate                 1.160201                       # Inst issue rate
system.switch_cpus_1.iq.fu_busy_cnt          15004366                       # FU busy when requested
system.switch_cpus_1.iq.fu_busy_rate         0.072933                       # FU busy rate (busy events/executed inst)
system.switch_cpus_1.iq.int_inst_queue_reads    237734962                       # Number of integer instruction queue reads
system.switch_cpus_1.iq.int_inst_queue_writes     28241710                       # Number of integer instruction queue writes
system.switch_cpus_1.iq.int_inst_queue_wakeup_accesses     27843342                       # Number of integer instruction queue wakeup accesses
system.switch_cpus_1.iq.fp_inst_queue_reads    366085255                       # Number of floating instruction queue reads
system.switch_cpus_1.iq.fp_inst_queue_writes    173986542                       # Number of floating instruction queue writes
system.switch_cpus_1.iq.fp_inst_queue_wakeup_accesses    172770592                       # Number of floating instruction queue wakeup accesses
system.switch_cpus_1.iq.int_alu_accesses     31676564                       # Number of integer alu accesses
system.switch_cpus_1.iq.fp_alu_accesses     189057101                       # Number of floating point alu accesses
system.switch_cpus_1.iew.lsq.thread0.forwLoads      9195712                       # Number of loads that had data forwarded from stores
system.switch_cpus_1.iew.lsq.thread0.invAddrLoads            0                       # Number of loads ignored due to an invalid address
system.switch_cpus_1.iew.lsq.thread0.squashedLoads       414007                       # Number of loads squashed
system.switch_cpus_1.iew.lsq.thread0.ignoredResponses          376                       # Number of memory responses ignored because the instruction is squashed
system.switch_cpus_1.iew.lsq.thread0.memOrderViolation        20762                       # Number of memory ordering violations
system.switch_cpus_1.iew.lsq.thread0.squashedStores       221283                       # Number of stores squashed
system.switch_cpus_1.iew.lsq.thread0.invAddrSwpfs            0                       # Number of software prefetches ignored due to an invalid address
system.switch_cpus_1.iew.lsq.thread0.blockedLoads            0                       # Number of blocked loads due to partial load-store forwarding
system.switch_cpus_1.iew.lsq.thread0.rescheduledLoads            0                       # Number of loads that were rescheduled
system.switch_cpus_1.iew.lsq.thread0.cacheBlocked      5206570                       # Number of times an access to memory failed due to the cache being blocked
system.switch_cpus_1.iew.iewIdleCycles              0                       # Number of cycles IEW is idle
system.switch_cpus_1.iew.iewSquashCycles        25073                       # Number of cycles IEW is squashing
system.switch_cpus_1.iew.iewBlockCycles      21860363                       # Number of cycles IEW is blocking
system.switch_cpus_1.iew.iewUnblockCycles     34567553                       # Number of cycles IEW is unblocking
system.switch_cpus_1.iew.iewDispatchedInsts    201103826                       # Number of instructions dispatched to IQ
system.switch_cpus_1.iew.iewDispSquashedInsts         2091                       # Number of squashed instructions skipped by dispatch
system.switch_cpus_1.iew.iewDispLoadInsts     82547926                       # Number of dispatched load instructions
system.switch_cpus_1.iew.iewDispStoreInsts     38176039                       # Number of dispatched store instructions
system.switch_cpus_1.iew.iewDispNonSpecInsts            0                       # Number of dispatched non-speculative instructions
system.switch_cpus_1.iew.iewIQFullEvents        21328                       # Number of times the IQ has become full, causing a stall
system.switch_cpus_1.iew.iewLSQFullEvents     34474288                       # Number of times the LSQ has become full, causing a stall
system.switch_cpus_1.iew.memOrderViolationEvents        20762                       # Number of memory order violations
system.switch_cpus_1.iew.predictedTakenIncorrect         1397                       # Number of branches that were predicted taken incorrectly
system.switch_cpus_1.iew.predictedNotTakenIncorrect           68                       # Number of branches that were predicted not taken incorrectly
system.switch_cpus_1.iew.branchMispredicts         1465                       # Number of branch mispredicts detected at execute
system.switch_cpus_1.iew.iewExecutedInsts    205665939                       # Number of executed instructions
system.switch_cpus_1.iew.iewExecLoadInsts     87395941                       # Number of load instructions executed
system.switch_cpus_1.iew.iewExecSquashedInsts        63351                       # Number of squashed instructions skipped in execute
system.switch_cpus_1.iew.exec_swp                   0                       # number of swp insts executed
system.switch_cpus_1.iew.exec_nop                  27                       # number of nop insts executed
system.switch_cpus_1.iew.exec_refs          125447099                       # number of memory reference insts executed
system.switch_cpus_1.iew.exec_branches         171904                       # Number of branches executed
system.switch_cpus_1.iew.exec_stores         38051158                       # Number of stores executed
system.switch_cpus_1.iew.exec_rate           1.159844                       # Inst execution rate
system.switch_cpus_1.iew.wb_sent            200670572                       # cumulative count of insts sent to commit
system.switch_cpus_1.iew.wb_count           200613934                       # cumulative count of insts written-back
system.switch_cpus_1.iew.wb_producers       131398995                       # num instructions producing a value
system.switch_cpus_1.iew.wb_consumers       136796801                       # num instructions consuming a value
system.switch_cpus_1.iew.wb_rate             1.131353                       # insts written-back per cycle
system.switch_cpus_1.iew.wb_fanout           0.960541                       # average fanout of values written-back
system.switch_cpus_1.commit.commitSquashedInsts      1060580                       # The number of squashed insts skipped by commit
system.switch_cpus_1.commit.branchMispredicts         1459                       # The number of times a branch was mispredicted
system.switch_cpus_1.commit.committed_per_cycle::samples    177175327                       # Number of insts commited each cycle
system.switch_cpus_1.commit.committed_per_cycle::mean     1.128825                       # Number of insts commited each cycle
system.switch_cpus_1.commit.committed_per_cycle::stdev     2.560447                       # Number of insts commited each cycle
system.switch_cpus_1.commit.committed_per_cycle::underflows            0      0.00%      0.00% # Number of insts commited each cycle
system.switch_cpus_1.commit.committed_per_cycle::0    142757195     80.57%     80.57% # Number of insts commited each cycle
system.switch_cpus_1.commit.committed_per_cycle::1      2854249      1.61%     82.18% # Number of insts commited each cycle
system.switch_cpus_1.commit.committed_per_cycle::2      3100953      1.75%     83.94% # Number of insts commited each cycle
system.switch_cpus_1.commit.committed_per_cycle::3      2395975      1.35%     85.29% # Number of insts commited each cycle
system.switch_cpus_1.commit.committed_per_cycle::4      2950259      1.67%     86.95% # Number of insts commited each cycle
system.switch_cpus_1.commit.committed_per_cycle::5      2473005      1.40%     88.35% # Number of insts commited each cycle
system.switch_cpus_1.commit.committed_per_cycle::6      1827049      1.03%     89.38% # Number of insts commited each cycle
system.switch_cpus_1.commit.committed_per_cycle::7      1905547      1.08%     90.46% # Number of insts commited each cycle
system.switch_cpus_1.commit.committed_per_cycle::8     16911095      9.54%    100.00% # Number of insts commited each cycle
system.switch_cpus_1.commit.committed_per_cycle::overflows            0      0.00%    100.00% # Number of insts commited each cycle
system.switch_cpus_1.commit.committed_per_cycle::min_value            0                       # Number of insts commited each cycle
system.switch_cpus_1.commit.committed_per_cycle::max_value            8                       # Number of insts commited each cycle
system.switch_cpus_1.commit.committed_per_cycle::total    177175327                       # Number of insts commited each cycle
system.switch_cpus_1.commit.committedInsts    200000024                       # Number of instructions committed
system.switch_cpus_1.commit.committedOps    200000024                       # Number of ops (including micro ops) committed
system.switch_cpus_1.commit.swp_count               0                       # Number of s/w prefetches committed
system.switch_cpus_1.commit.refs            120088640                       # Number of memory references committed
system.switch_cpus_1.commit.loads            82133897                       # Number of loads committed
system.switch_cpus_1.commit.membars                 0                       # Number of memory barriers committed
system.switch_cpus_1.commit.branches           167612                       # Number of branches committed
system.switch_cpus_1.commit.fp_insts        172405126                       # Number of committed floating point instructions.
system.switch_cpus_1.commit.int_insts       135398704                       # Number of committed integer instructions.
system.switch_cpus_1.commit.function_calls            0                       # Number of function calls committed.
system.switch_cpus_1.commit.op_class_0::No_OpClass           18      0.00%      0.00% # Class of committed instruction
system.switch_cpus_1.commit.op_class_0::IntAlu     15310537      7.66%      7.66% # Class of committed instruction
system.switch_cpus_1.commit.op_class_0::IntMult          186      0.00%      7.66% # Class of committed instruction
system.switch_cpus_1.commit.op_class_0::IntDiv            0      0.00%      7.66% # Class of committed instruction
system.switch_cpus_1.commit.op_class_0::FloatAdd     36073856     18.04%     25.69% # Class of committed instruction
system.switch_cpus_1.commit.op_class_0::FloatCmp            0      0.00%     25.69% # Class of committed instruction
system.switch_cpus_1.commit.op_class_0::FloatCvt            0      0.00%     25.69% # Class of committed instruction
system.switch_cpus_1.commit.op_class_0::FloatMult     28449010     14.22%     39.92% # Class of committed instruction
system.switch_cpus_1.commit.op_class_0::FloatMultAcc            0      0.00%     39.92% # Class of committed instruction
system.switch_cpus_1.commit.op_class_0::FloatDiv        77777      0.04%     39.96% # Class of committed instruction
system.switch_cpus_1.commit.op_class_0::FloatMisc            0      0.00%     39.96% # Class of committed instruction
system.switch_cpus_1.commit.op_class_0::FloatSqrt            0      0.00%     39.96% # Class of committed instruction
system.switch_cpus_1.commit.op_class_0::SimdAdd            0      0.00%     39.96% # Class of committed instruction
system.switch_cpus_1.commit.op_class_0::SimdAddAcc            0      0.00%     39.96% # Class of committed instruction
system.switch_cpus_1.commit.op_class_0::SimdAlu            0      0.00%     39.96% # Class of committed instruction
system.switch_cpus_1.commit.op_class_0::SimdCmp            0      0.00%     39.96% # Class of committed instruction
system.switch_cpus_1.commit.op_class_0::SimdCvt            0      0.00%     39.96% # Class of committed instruction
system.switch_cpus_1.commit.op_class_0::SimdMisc            0      0.00%     39.96% # Class of committed instruction
system.switch_cpus_1.commit.op_class_0::SimdMult            0      0.00%     39.96% # Class of committed instruction
system.switch_cpus_1.commit.op_class_0::SimdMultAcc            0      0.00%     39.96% # Class of committed instruction
system.switch_cpus_1.commit.op_class_0::SimdShift            0      0.00%     39.96% # Class of committed instruction
system.switch_cpus_1.commit.op_class_0::SimdShiftAcc            0      0.00%     39.96% # Class of committed instruction
system.switch_cpus_1.commit.op_class_0::SimdSqrt            0      0.00%     39.96% # Class of committed instruction
system.switch_cpus_1.commit.op_class_0::SimdFloatAdd            0      0.00%     39.96% # Class of committed instruction
system.switch_cpus_1.commit.op_class_0::SimdFloatAlu            0      0.00%     39.96% # Class of committed instruction
system.switch_cpus_1.commit.op_class_0::SimdFloatCmp            0      0.00%     39.96% # Class of committed instruction
system.switch_cpus_1.commit.op_class_0::SimdFloatCvt            0      0.00%     39.96% # Class of committed instruction
system.switch_cpus_1.commit.op_class_0::SimdFloatDiv            0      0.00%     39.96% # Class of committed instruction
system.switch_cpus_1.commit.op_class_0::SimdFloatMisc            0      0.00%     39.96% # Class of committed instruction
system.switch_cpus_1.commit.op_class_0::SimdFloatMult            0      0.00%     39.96% # Class of committed instruction
system.switch_cpus_1.commit.op_class_0::SimdFloatMultAcc            0      0.00%     39.96% # Class of committed instruction
system.switch_cpus_1.commit.op_class_0::SimdFloatSqrt            0      0.00%     39.96% # Class of committed instruction
system.switch_cpus_1.commit.op_class_0::MemRead      8202704      4.10%     44.06% # Class of committed instruction
system.switch_cpus_1.commit.op_class_0::MemWrite      4081453      2.04%     46.10% # Class of committed instruction
system.switch_cpus_1.commit.op_class_0::FloatMemRead     73931193     36.97%     83.06% # Class of committed instruction
system.switch_cpus_1.commit.op_class_0::FloatMemWrite     33873290     16.94%    100.00% # Class of committed instruction
system.switch_cpus_1.commit.op_class_0::IprAccess            0      0.00%    100.00% # Class of committed instruction
system.switch_cpus_1.commit.op_class_0::InstPrefetch            0      0.00%    100.00% # Class of committed instruction
system.switch_cpus_1.commit.op_class_0::total    200000024                       # Class of committed instruction
system.switch_cpus_1.commit.bw_lim_events     16911095                       # number cycles where commit BW limit reached
system.switch_cpus_1.rob.rob_reads          361246836                       # The number of ROB reads
system.switch_cpus_1.rob.rob_writes         402268536                       # The number of ROB writes
system.switch_cpus_1.timesIdled                     4                       # Number of times that the entire CPU went into an idle state and unscheduled itself
system.switch_cpus_1.idleCycles                   605                       # Total number of cycles that the CPU has spent unscheduled due to idling
system.switch_cpus_1.committedInsts         200000006                       # Number of Instructions Simulated
system.switch_cpus_1.committedOps           200000006                       # Number of Ops (including micro ops) Simulated
system.switch_cpus_1.cpi                     0.886611                       # CPI: Cycles Per Instruction
system.switch_cpus_1.cpi_total               0.886611                       # CPI: Total CPI of All Threads
system.switch_cpus_1.ipc                     1.127891                       # IPC: Instructions Per Cycle
system.switch_cpus_1.ipc_total               1.127891                       # IPC: Total IPC of All Threads
system.switch_cpus_1.int_regfile_reads      145488986                       # number of integer regfile reads
system.switch_cpus_1.int_regfile_writes      23579084                       # number of integer regfile writes
system.switch_cpus_1.fp_regfile_reads       163402167                       # number of floating regfile reads
system.switch_cpus_1.fp_regfile_writes      138858023                       # number of floating regfile writes
system.tol3bus.snoop_filter.tot_requests      7960306                       # Total number of requests made to the snoop filter.
system.tol3bus.snoop_filter.hit_single_requests      3978199                       # Number of requests hitting in the snoop filter with a single holder of the requested data.
system.tol3bus.snoop_filter.hit_multi_requests            0                       # Number of requests hitting in the snoop filter with multiple (>1) holders of the requested data.
system.tol3bus.snoop_filter.tot_snoops         160360                       # Total number of snoops made to the snoop filter.
system.tol3bus.snoop_filter.hit_single_snoops       160360                       # Number of snoops hitting in the snoop filter with a single holder of the requested data.
system.tol3bus.snoop_filter.hit_multi_snoops            0                       # Number of snoops hitting in the snoop filter with multiple (>1) holders of the requested data.
system.tol3bus.pwrStateResidencyTicks::UNDEFINED 35021545462602                       # Cumulative time (in ticks) in various power states
system.tol3bus.trans_dist::ReadResp           2827264                       # Transaction distribution
system.tol3bus.trans_dist::WritebackDirty      2582667                       # Transaction distribution
system.tol3bus.trans_dist::CleanEvict         4571957                       # Transaction distribution
system.tol3bus.trans_dist::ReadExReq          1154843                       # Transaction distribution
system.tol3bus.trans_dist::ReadExResp         1154843                       # Transaction distribution
system.tol3bus.trans_dist::ReadSharedReq      2827264                       # Transaction distribution
system.tol3bus.pkt_count_system.cpu.l2.mem_side::system.l3.cpu_side     11942413                       # Packet count per connected master and slave (bytes)
system.tol3bus.pkt_size_system.cpu.l2.mem_side::system.l3.cpu_side    350243648                       # Cumulative packet size per connected master and slave (bytes)
system.tol3bus.snoops                         3176425                       # Total snoops (count)
system.tol3bus.snoopTraffic                  69901888                       # Total snoop traffic (bytes)
system.tol3bus.snoop_fanout::samples          7158532                       # Request fanout histogram
system.tol3bus.snoop_fanout::mean            0.022401                       # Request fanout histogram
system.tol3bus.snoop_fanout::stdev           0.147985                       # Request fanout histogram
system.tol3bus.snoop_fanout::underflows             0      0.00%      0.00% # Request fanout histogram
system.tol3bus.snoop_fanout::0                6998172     97.76%     97.76% # Request fanout histogram
system.tol3bus.snoop_fanout::1                 160360      2.24%    100.00% # Request fanout histogram
system.tol3bus.snoop_fanout::overflows              0      0.00%    100.00% # Request fanout histogram
system.tol3bus.snoop_fanout::min_value              0                       # Request fanout histogram
system.tol3bus.snoop_fanout::max_value              1                       # Request fanout histogram
system.tol3bus.snoop_fanout::total            7158532                       # Request fanout histogram
system.tol3bus.reqLayer0.occupancy         3147101748                       # Layer occupancy (ticks)
system.tol3bus.reqLayer0.utilization              0.2                       # Layer utilization (%)
system.tol3bus.respLayer0.occupancy        2652083262                       # Layer occupancy (ticks)
system.tol3bus.respLayer0.utilization             0.2                       # Layer utilization (%)

---------- End Simulation Statistics   ----------
