
---------- Begin Simulation Statistics ----------
sim_seconds                                  1.398806                       # Number of seconds simulated
sim_ticks                                1398805656804                       # Number of ticks simulated
final_tick                               118633502088990                       # Number of ticks from beginning of simulation (restored from checkpoints and never reset)
sim_freq                                 1000000000000                       # Frequency of simulated ticks
host_inst_rate                                 673818                       # Simulator instruction rate (inst/s)
host_op_rate                                   673818                       # Simulator op (including micro ops) rate (op/s)
host_tick_rate                              785449855                       # Simulator tick rate (ticks/s)
host_mem_usage                                2589452                       # Number of bytes of host memory used
host_seconds                                  1780.90                       # Real time elapsed on the host
sim_insts                                  1200000007                       # Number of instructions simulated
sim_ops                                    1200000007                       # Number of ops (including micro ops) simulated
system.voltage_domain.voltage                       1                       # Voltage in Volts
system.clk_domain.clock                          1000                       # Clock period in ticks
system.mem_ctrls0.pwrStateResidencyTicks::UNDEFINED 118633502088990                       # Cumulative time (in ticks) in various power states
system.mem_ctrls0.bytes_read::cpu.inst             64                       # Number of bytes read from this memory
system.mem_ctrls0.bytes_read::switch_cpus.inst        21952                       # Number of bytes read from this memory
system.mem_ctrls0.bytes_read::switch_cpus.data    118772480                       # Number of bytes read from this memory
system.mem_ctrls0.bytes_read::switch_cpus_1.inst          384                       # Number of bytes read from this memory
system.mem_ctrls0.bytes_read::switch_cpus_1.data     21605952                       # Number of bytes read from this memory
system.mem_ctrls0.bytes_read::total         140400832                       # Number of bytes read from this memory
system.mem_ctrls0.bytes_inst_read::cpu.inst           64                       # Number of instructions bytes read from this memory
system.mem_ctrls0.bytes_inst_read::switch_cpus.inst        21952                       # Number of instructions bytes read from this memory
system.mem_ctrls0.bytes_inst_read::switch_cpus_1.inst          384                       # Number of instructions bytes read from this memory
system.mem_ctrls0.bytes_inst_read::total        22400                       # Number of instructions bytes read from this memory
system.mem_ctrls0.bytes_written::writebacks     55950528                       # Number of bytes written to this memory
system.mem_ctrls0.bytes_written::total       55950528                       # Number of bytes written to this memory
system.mem_ctrls0.num_reads::cpu.inst               1                       # Number of read requests responded to by this memory
system.mem_ctrls0.num_reads::switch_cpus.inst          343                       # Number of read requests responded to by this memory
system.mem_ctrls0.num_reads::switch_cpus.data      1855820                       # Number of read requests responded to by this memory
system.mem_ctrls0.num_reads::switch_cpus_1.inst            6                       # Number of read requests responded to by this memory
system.mem_ctrls0.num_reads::switch_cpus_1.data       337593                       # Number of read requests responded to by this memory
system.mem_ctrls0.num_reads::total            2193763                       # Number of read requests responded to by this memory
system.mem_ctrls0.num_writes::writebacks       874227                       # Number of write requests responded to by this memory
system.mem_ctrls0.num_writes::total            874227                       # Number of write requests responded to by this memory
system.mem_ctrls0.bw_read::cpu.inst                46                       # Total read bandwidth from this memory (bytes/s)
system.mem_ctrls0.bw_read::switch_cpus.inst        15693                       # Total read bandwidth from this memory (bytes/s)
system.mem_ctrls0.bw_read::switch_cpus.data     84909923                       # Total read bandwidth from this memory (bytes/s)
system.mem_ctrls0.bw_read::switch_cpus_1.inst          275                       # Total read bandwidth from this memory (bytes/s)
system.mem_ctrls0.bw_read::switch_cpus_1.data     15446000                       # Total read bandwidth from this memory (bytes/s)
system.mem_ctrls0.bw_read::total            100371936                       # Total read bandwidth from this memory (bytes/s)
system.mem_ctrls0.bw_inst_read::cpu.inst           46                       # Instruction read bandwidth from this memory (bytes/s)
system.mem_ctrls0.bw_inst_read::switch_cpus.inst        15693                       # Instruction read bandwidth from this memory (bytes/s)
system.mem_ctrls0.bw_inst_read::switch_cpus_1.inst          275                       # Instruction read bandwidth from this memory (bytes/s)
system.mem_ctrls0.bw_inst_read::total           16014                       # Instruction read bandwidth from this memory (bytes/s)
system.mem_ctrls0.bw_write::writebacks       39998786                       # Write bandwidth from this memory (bytes/s)
system.mem_ctrls0.bw_write::total            39998786                       # Write bandwidth from this memory (bytes/s)
system.mem_ctrls0.bw_total::writebacks       39998786                       # Total bandwidth to/from this memory (bytes/s)
system.mem_ctrls0.bw_total::cpu.inst               46                       # Total bandwidth to/from this memory (bytes/s)
system.mem_ctrls0.bw_total::switch_cpus.inst        15693                       # Total bandwidth to/from this memory (bytes/s)
system.mem_ctrls0.bw_total::switch_cpus.data     84909923                       # Total bandwidth to/from this memory (bytes/s)
system.mem_ctrls0.bw_total::switch_cpus_1.inst          275                       # Total bandwidth to/from this memory (bytes/s)
system.mem_ctrls0.bw_total::switch_cpus_1.data     15446000                       # Total bandwidth to/from this memory (bytes/s)
system.mem_ctrls0.bw_total::total           140370722                       # Total bandwidth to/from this memory (bytes/s)
system.mem_ctrls0.readReqs                    2193763                       # Number of read requests accepted
system.mem_ctrls0.writeReqs                    874227                       # Number of write requests accepted
system.mem_ctrls0.readBursts                  2193763                       # Number of DRAM read bursts, including those serviced by the write queue
system.mem_ctrls0.writeBursts                  874227                       # Number of DRAM write bursts, including those merged in the write queue
system.mem_ctrls0.bytesReadDRAM             140398784                       # Total number of bytes read from DRAM
system.mem_ctrls0.bytesReadWrQ                   2048                       # Total number of bytes read from write queue
system.mem_ctrls0.bytesWritten               55949056                       # Total number of bytes written to DRAM
system.mem_ctrls0.bytesReadSys              140400832                       # Total read bytes from the system interface side
system.mem_ctrls0.bytesWrittenSys            55950528                       # Total written bytes from the system interface side
system.mem_ctrls0.servicedByWrQ                    32                       # Number of DRAM read bursts serviced by the write queue
system.mem_ctrls0.mergedWrBursts                    0                       # Number of DRAM write bursts merged with an existing one
system.mem_ctrls0.neitherReadNorWriteReqs            0                       # Number of requests that are neither read nor write
system.mem_ctrls0.perBankRdBursts::0           136875                       # Per bank write bursts
system.mem_ctrls0.perBankRdBursts::1           137369                       # Per bank write bursts
system.mem_ctrls0.perBankRdBursts::2           137662                       # Per bank write bursts
system.mem_ctrls0.perBankRdBursts::3           136887                       # Per bank write bursts
system.mem_ctrls0.perBankRdBursts::4           137488                       # Per bank write bursts
system.mem_ctrls0.perBankRdBursts::5           136906                       # Per bank write bursts
system.mem_ctrls0.perBankRdBursts::6           137663                       # Per bank write bursts
system.mem_ctrls0.perBankRdBursts::7           136731                       # Per bank write bursts
system.mem_ctrls0.perBankRdBursts::8           137283                       # Per bank write bursts
system.mem_ctrls0.perBankRdBursts::9           137478                       # Per bank write bursts
system.mem_ctrls0.perBankRdBursts::10          136892                       # Per bank write bursts
system.mem_ctrls0.perBankRdBursts::11          137162                       # Per bank write bursts
system.mem_ctrls0.perBankRdBursts::12          137214                       # Per bank write bursts
system.mem_ctrls0.perBankRdBursts::13          136165                       # Per bank write bursts
system.mem_ctrls0.perBankRdBursts::14          136830                       # Per bank write bursts
system.mem_ctrls0.perBankRdBursts::15          137126                       # Per bank write bursts
system.mem_ctrls0.perBankWrBursts::0            54573                       # Per bank write bursts
system.mem_ctrls0.perBankWrBursts::1            54351                       # Per bank write bursts
system.mem_ctrls0.perBankWrBursts::2            54671                       # Per bank write bursts
system.mem_ctrls0.perBankWrBursts::3            54649                       # Per bank write bursts
system.mem_ctrls0.perBankWrBursts::4            54448                       # Per bank write bursts
system.mem_ctrls0.perBankWrBursts::5            54638                       # Per bank write bursts
system.mem_ctrls0.perBankWrBursts::6            55277                       # Per bank write bursts
system.mem_ctrls0.perBankWrBursts::7            54543                       # Per bank write bursts
system.mem_ctrls0.perBankWrBursts::8            54773                       # Per bank write bursts
system.mem_ctrls0.perBankWrBursts::9            54843                       # Per bank write bursts
system.mem_ctrls0.perBankWrBursts::10           54734                       # Per bank write bursts
system.mem_ctrls0.perBankWrBursts::11           54576                       # Per bank write bursts
system.mem_ctrls0.perBankWrBursts::12           54789                       # Per bank write bursts
system.mem_ctrls0.perBankWrBursts::13           54510                       # Per bank write bursts
system.mem_ctrls0.perBankWrBursts::14           54345                       # Per bank write bursts
system.mem_ctrls0.perBankWrBursts::15           54484                       # Per bank write bursts
system.mem_ctrls0.numRdRetry                        0                       # Number of times read queue was full causing retry
system.mem_ctrls0.numWrRetry                        0                       # Number of times write queue was full causing retry
system.mem_ctrls0.totGap                 1398805559568                       # Total gap between requests
system.mem_ctrls0.readPktSize::0                    0                       # Read request sizes (log2)
system.mem_ctrls0.readPktSize::1                    0                       # Read request sizes (log2)
system.mem_ctrls0.readPktSize::2                    0                       # Read request sizes (log2)
system.mem_ctrls0.readPktSize::3                    0                       # Read request sizes (log2)
system.mem_ctrls0.readPktSize::4                    0                       # Read request sizes (log2)
system.mem_ctrls0.readPktSize::5                    0                       # Read request sizes (log2)
system.mem_ctrls0.readPktSize::6              2193763                       # Read request sizes (log2)
system.mem_ctrls0.writePktSize::0                   0                       # Write request sizes (log2)
system.mem_ctrls0.writePktSize::1                   0                       # Write request sizes (log2)
system.mem_ctrls0.writePktSize::2                   0                       # Write request sizes (log2)
system.mem_ctrls0.writePktSize::3                   0                       # Write request sizes (log2)
system.mem_ctrls0.writePktSize::4                   0                       # Write request sizes (log2)
system.mem_ctrls0.writePktSize::5                   0                       # Write request sizes (log2)
system.mem_ctrls0.writePktSize::6              874227                       # Write request sizes (log2)
system.mem_ctrls0.rdQLenPdf::0                2104343                       # What read queue length does an incoming req see
system.mem_ctrls0.rdQLenPdf::1                  74121                       # What read queue length does an incoming req see
system.mem_ctrls0.rdQLenPdf::2                  13599                       # What read queue length does an incoming req see
system.mem_ctrls0.rdQLenPdf::3                   1668                       # What read queue length does an incoming req see
system.mem_ctrls0.rdQLenPdf::4                      0                       # What read queue length does an incoming req see
system.mem_ctrls0.rdQLenPdf::5                      0                       # What read queue length does an incoming req see
system.mem_ctrls0.rdQLenPdf::6                      0                       # What read queue length does an incoming req see
system.mem_ctrls0.rdQLenPdf::7                      0                       # What read queue length does an incoming req see
system.mem_ctrls0.rdQLenPdf::8                      0                       # What read queue length does an incoming req see
system.mem_ctrls0.rdQLenPdf::9                      0                       # What read queue length does an incoming req see
system.mem_ctrls0.rdQLenPdf::10                     0                       # What read queue length does an incoming req see
system.mem_ctrls0.rdQLenPdf::11                     0                       # What read queue length does an incoming req see
system.mem_ctrls0.rdQLenPdf::12                     0                       # What read queue length does an incoming req see
system.mem_ctrls0.rdQLenPdf::13                     0                       # What read queue length does an incoming req see
system.mem_ctrls0.rdQLenPdf::14                     0                       # What read queue length does an incoming req see
system.mem_ctrls0.rdQLenPdf::15                     0                       # What read queue length does an incoming req see
system.mem_ctrls0.rdQLenPdf::16                     0                       # What read queue length does an incoming req see
system.mem_ctrls0.rdQLenPdf::17                     0                       # What read queue length does an incoming req see
system.mem_ctrls0.rdQLenPdf::18                     0                       # What read queue length does an incoming req see
system.mem_ctrls0.rdQLenPdf::19                     0                       # What read queue length does an incoming req see
system.mem_ctrls0.rdQLenPdf::20                     0                       # What read queue length does an incoming req see
system.mem_ctrls0.rdQLenPdf::21                     0                       # What read queue length does an incoming req see
system.mem_ctrls0.rdQLenPdf::22                     0                       # What read queue length does an incoming req see
system.mem_ctrls0.rdQLenPdf::23                     0                       # What read queue length does an incoming req see
system.mem_ctrls0.rdQLenPdf::24                     0                       # What read queue length does an incoming req see
system.mem_ctrls0.rdQLenPdf::25                     0                       # What read queue length does an incoming req see
system.mem_ctrls0.rdQLenPdf::26                     0                       # What read queue length does an incoming req see
system.mem_ctrls0.rdQLenPdf::27                     0                       # What read queue length does an incoming req see
system.mem_ctrls0.rdQLenPdf::28                     0                       # What read queue length does an incoming req see
system.mem_ctrls0.rdQLenPdf::29                     0                       # What read queue length does an incoming req see
system.mem_ctrls0.rdQLenPdf::30                     0                       # What read queue length does an incoming req see
system.mem_ctrls0.rdQLenPdf::31                     0                       # What read queue length does an incoming req see
system.mem_ctrls0.wrQLenPdf::0                      2                       # What write queue length does an incoming req see
system.mem_ctrls0.wrQLenPdf::1                      2                       # What write queue length does an incoming req see
system.mem_ctrls0.wrQLenPdf::2                      2                       # What write queue length does an incoming req see
system.mem_ctrls0.wrQLenPdf::3                      2                       # What write queue length does an incoming req see
system.mem_ctrls0.wrQLenPdf::4                      2                       # What write queue length does an incoming req see
system.mem_ctrls0.wrQLenPdf::5                      2                       # What write queue length does an incoming req see
system.mem_ctrls0.wrQLenPdf::6                      2                       # What write queue length does an incoming req see
system.mem_ctrls0.wrQLenPdf::7                      2                       # What write queue length does an incoming req see
system.mem_ctrls0.wrQLenPdf::8                      2                       # What write queue length does an incoming req see
system.mem_ctrls0.wrQLenPdf::9                      2                       # What write queue length does an incoming req see
system.mem_ctrls0.wrQLenPdf::10                     2                       # What write queue length does an incoming req see
system.mem_ctrls0.wrQLenPdf::11                     2                       # What write queue length does an incoming req see
system.mem_ctrls0.wrQLenPdf::12                     2                       # What write queue length does an incoming req see
system.mem_ctrls0.wrQLenPdf::13                     2                       # What write queue length does an incoming req see
system.mem_ctrls0.wrQLenPdf::14                     2                       # What write queue length does an incoming req see
system.mem_ctrls0.wrQLenPdf::15                 37740                       # What write queue length does an incoming req see
system.mem_ctrls0.wrQLenPdf::16                 38719                       # What write queue length does an incoming req see
system.mem_ctrls0.wrQLenPdf::17                 48879                       # What write queue length does an incoming req see
system.mem_ctrls0.wrQLenPdf::18                 49713                       # What write queue length does an incoming req see
system.mem_ctrls0.wrQLenPdf::19                 49807                       # What write queue length does an incoming req see
system.mem_ctrls0.wrQLenPdf::20                 49810                       # What write queue length does an incoming req see
system.mem_ctrls0.wrQLenPdf::21                 49828                       # What write queue length does an incoming req see
system.mem_ctrls0.wrQLenPdf::22                 49897                       # What write queue length does an incoming req see
system.mem_ctrls0.wrQLenPdf::23                 49923                       # What write queue length does an incoming req see
system.mem_ctrls0.wrQLenPdf::24                 49935                       # What write queue length does an incoming req see
system.mem_ctrls0.wrQLenPdf::25                 50387                       # What write queue length does an incoming req see
system.mem_ctrls0.wrQLenPdf::26                 50086                       # What write queue length does an incoming req see
system.mem_ctrls0.wrQLenPdf::27                 49901                       # What write queue length does an incoming req see
system.mem_ctrls0.wrQLenPdf::28                 49939                       # What write queue length does an incoming req see
system.mem_ctrls0.wrQLenPdf::29                 49954                       # What write queue length does an incoming req see
system.mem_ctrls0.wrQLenPdf::30                 50028                       # What write queue length does an incoming req see
system.mem_ctrls0.wrQLenPdf::31                 49844                       # What write queue length does an incoming req see
system.mem_ctrls0.wrQLenPdf::32                 49790                       # What write queue length does an incoming req see
system.mem_ctrls0.wrQLenPdf::33                    17                       # What write queue length does an incoming req see
system.mem_ctrls0.wrQLenPdf::34                     0                       # What write queue length does an incoming req see
system.mem_ctrls0.wrQLenPdf::35                     0                       # What write queue length does an incoming req see
system.mem_ctrls0.wrQLenPdf::36                     0                       # What write queue length does an incoming req see
system.mem_ctrls0.wrQLenPdf::37                     0                       # What write queue length does an incoming req see
system.mem_ctrls0.wrQLenPdf::38                     0                       # What write queue length does an incoming req see
system.mem_ctrls0.wrQLenPdf::39                     0                       # What write queue length does an incoming req see
system.mem_ctrls0.wrQLenPdf::40                     0                       # What write queue length does an incoming req see
system.mem_ctrls0.wrQLenPdf::41                     0                       # What write queue length does an incoming req see
system.mem_ctrls0.wrQLenPdf::42                     0                       # What write queue length does an incoming req see
system.mem_ctrls0.wrQLenPdf::43                     0                       # What write queue length does an incoming req see
system.mem_ctrls0.wrQLenPdf::44                     0                       # What write queue length does an incoming req see
system.mem_ctrls0.wrQLenPdf::45                     0                       # What write queue length does an incoming req see
system.mem_ctrls0.wrQLenPdf::46                     0                       # What write queue length does an incoming req see
system.mem_ctrls0.wrQLenPdf::47                     0                       # What write queue length does an incoming req see
system.mem_ctrls0.wrQLenPdf::48                     0                       # What write queue length does an incoming req see
system.mem_ctrls0.wrQLenPdf::49                     0                       # What write queue length does an incoming req see
system.mem_ctrls0.wrQLenPdf::50                     0                       # What write queue length does an incoming req see
system.mem_ctrls0.wrQLenPdf::51                     0                       # What write queue length does an incoming req see
system.mem_ctrls0.wrQLenPdf::52                     0                       # What write queue length does an incoming req see
system.mem_ctrls0.wrQLenPdf::53                     0                       # What write queue length does an incoming req see
system.mem_ctrls0.wrQLenPdf::54                     0                       # What write queue length does an incoming req see
system.mem_ctrls0.wrQLenPdf::55                     0                       # What write queue length does an incoming req see
system.mem_ctrls0.wrQLenPdf::56                     0                       # What write queue length does an incoming req see
system.mem_ctrls0.wrQLenPdf::57                     0                       # What write queue length does an incoming req see
system.mem_ctrls0.wrQLenPdf::58                     0                       # What write queue length does an incoming req see
system.mem_ctrls0.wrQLenPdf::59                     0                       # What write queue length does an incoming req see
system.mem_ctrls0.wrQLenPdf::60                     0                       # What write queue length does an incoming req see
system.mem_ctrls0.wrQLenPdf::61                     0                       # What write queue length does an incoming req see
system.mem_ctrls0.wrQLenPdf::62                     0                       # What write queue length does an incoming req see
system.mem_ctrls0.wrQLenPdf::63                     0                       # What write queue length does an incoming req see
system.mem_ctrls0.bytesPerActivate::samples      1978841                       # Bytes accessed per row activation
system.mem_ctrls0.bytesPerActivate::mean    99.223204                       # Bytes accessed per row activation
system.mem_ctrls0.bytesPerActivate::gmean    81.282807                       # Bytes accessed per row activation
system.mem_ctrls0.bytesPerActivate::stdev    92.151740                       # Bytes accessed per row activation
system.mem_ctrls0.bytesPerActivate::0-127      1572596     79.47%     79.47% # Bytes accessed per row activation
system.mem_ctrls0.bytesPerActivate::128-255       250701     12.67%     92.14% # Bytes accessed per row activation
system.mem_ctrls0.bytesPerActivate::256-383        71809      3.63%     95.77% # Bytes accessed per row activation
system.mem_ctrls0.bytesPerActivate::384-511        39018      1.97%     97.74% # Bytes accessed per row activation
system.mem_ctrls0.bytesPerActivate::512-639        44034      2.23%     99.97% # Bytes accessed per row activation
system.mem_ctrls0.bytesPerActivate::640-767          507      0.03%     99.99% # Bytes accessed per row activation
system.mem_ctrls0.bytesPerActivate::768-895          108      0.01%    100.00% # Bytes accessed per row activation
system.mem_ctrls0.bytesPerActivate::896-1023           50      0.00%    100.00% # Bytes accessed per row activation
system.mem_ctrls0.bytesPerActivate::1024-1151           18      0.00%    100.00% # Bytes accessed per row activation
system.mem_ctrls0.bytesPerActivate::total      1978841                       # Bytes accessed per row activation
system.mem_ctrls0.rdPerTurnAround::samples        49737                       # Reads before turning the bus around for writes
system.mem_ctrls0.rdPerTurnAround::mean     44.106359                       # Reads before turning the bus around for writes
system.mem_ctrls0.rdPerTurnAround::gmean    41.984540                       # Reads before turning the bus around for writes
system.mem_ctrls0.rdPerTurnAround::stdev   141.195638                       # Reads before turning the bus around for writes
system.mem_ctrls0.rdPerTurnAround::0-1023        49736    100.00%    100.00% # Reads before turning the bus around for writes
system.mem_ctrls0.rdPerTurnAround::30720-31743            1      0.00%    100.00% # Reads before turning the bus around for writes
system.mem_ctrls0.rdPerTurnAround::total        49737                       # Reads before turning the bus around for writes
system.mem_ctrls0.wrPerTurnAround::samples        49737                       # Writes before turning the bus around for reads
system.mem_ctrls0.wrPerTurnAround::mean     17.576533                       # Writes before turning the bus around for reads
system.mem_ctrls0.wrPerTurnAround::gmean    17.553900                       # Writes before turning the bus around for reads
system.mem_ctrls0.wrPerTurnAround::stdev     0.876123                       # Writes before turning the bus around for reads
system.mem_ctrls0.wrPerTurnAround::16           11004     22.12%     22.12% # Writes before turning the bus around for reads
system.mem_ctrls0.wrPerTurnAround::17             928      1.87%     23.99% # Writes before turning the bus around for reads
system.mem_ctrls0.wrPerTurnAround::18           36043     72.47%     96.46% # Writes before turning the bus around for reads
system.mem_ctrls0.wrPerTurnAround::19            1664      3.35%     99.80% # Writes before turning the bus around for reads
system.mem_ctrls0.wrPerTurnAround::20              91      0.18%     99.99% # Writes before turning the bus around for reads
system.mem_ctrls0.wrPerTurnAround::21               4      0.01%     99.99% # Writes before turning the bus around for reads
system.mem_ctrls0.wrPerTurnAround::22               1      0.00%    100.00% # Writes before turning the bus around for reads
system.mem_ctrls0.wrPerTurnAround::24               2      0.00%    100.00% # Writes before turning the bus around for reads
system.mem_ctrls0.wrPerTurnAround::total        49737                       # Writes before turning the bus around for reads
system.mem_ctrls0.totQLat                 59691507461                       # Total ticks spent queuing
system.mem_ctrls0.totMemAccLat           100823963711                       # Total ticks spent from burst creation until serviced by the DRAM
system.mem_ctrls0.totBusLat               10968655000                       # Total ticks spent in databus transfers
system.mem_ctrls0.avgQLat                    27210.04                       # Average queueing delay per DRAM burst
system.mem_ctrls0.avgBusLat                   5000.00                       # Average bus latency per DRAM burst
system.mem_ctrls0.avgMemAccLat               45960.04                       # Average memory access latency per DRAM burst
system.mem_ctrls0.avgRdBW                      100.37                       # Average DRAM read bandwidth in MiByte/s
system.mem_ctrls0.avgWrBW                       40.00                       # Average achieved write bandwidth in MiByte/s
system.mem_ctrls0.avgRdBWSys                   100.37                       # Average system read bandwidth in MiByte/s
system.mem_ctrls0.avgWrBWSys                    40.00                       # Average system write bandwidth in MiByte/s
system.mem_ctrls0.peakBW                     12800.00                       # Theoretical peak bandwidth in MiByte/s
system.mem_ctrls0.busUtil                        1.10                       # Data bus utilization in percentage
system.mem_ctrls0.busUtilRead                    0.78                       # Data bus utilization in percentage for reads
system.mem_ctrls0.busUtilWrite                   0.31                       # Data bus utilization in percentage for writes
system.mem_ctrls0.avgRdQLen                      1.02                       # Average read queue length when enqueuing
system.mem_ctrls0.avgWrQLen                     24.27                       # Average write queue length when enqueuing
system.mem_ctrls0.readRowHits                  897047                       # Number of row buffer hits during reads
system.mem_ctrls0.writeRowHits                 192033                       # Number of row buffer hits during writes
system.mem_ctrls0.readRowHitRate                40.89                       # Row buffer hit rate for reads
system.mem_ctrls0.writeRowHitRate               21.97                       # Row buffer hit rate for writes
system.mem_ctrls0.avgGap                    455935.50                       # Average gap between requests
system.mem_ctrls0.pageHitRate                   35.50                       # Row buffer hit rate, read and write combined
system.mem_ctrls0_0.actEnergy              7058911020                       # Energy for activate commands per rank (pJ)
system.mem_ctrls0_0.preEnergy              3751869825                       # Energy for precharge commands per rank (pJ)
system.mem_ctrls0_0.readEnergy             7836728340                       # Energy for read commands per rank (pJ)
system.mem_ctrls0_0.writeEnergy            2281923000                       # Energy for write commands per rank (pJ)
system.mem_ctrls0_0.refreshEnergy        110858314320.000031                       # Energy for refresh commands per rank (pJ)
system.mem_ctrls0_0.actBackEnergy         64392955860                       # Energy for active background per rank (pJ)
system.mem_ctrls0_0.preBackEnergy          3726242880                       # Energy for precharge background per rank (pJ)
system.mem_ctrls0_0.actPowerDownEnergy   402081870300                       # Energy for active power-down per rank (pJ)
system.mem_ctrls0_0.prePowerDownEnergy   101016592320                       # Energy for precharge power-down per rank (pJ)
system.mem_ctrls0_0.selfRefreshEnergy     33016395120                       # Energy for self refresh per rank (pJ)
system.mem_ctrls0_0.totalEnergy          736047840255                       # Total energy per rank (pJ)
system.mem_ctrls0_0.averagePower           526.197351                       # Core power per rank (mW)
system.mem_ctrls0_0.totalIdleTime        1247838341175                       # Total Idle time Per DRAM Rank
system.mem_ctrls0_0.memoryStateTime::IDLE   4883083646                       # Time in different power states
system.mem_ctrls0_0.memoryStateTime::REF  46986672000                       # Time in different power states
system.mem_ctrls0_0.memoryStateTime::SREF 103008784197                       # Time in different power states
system.mem_ctrls0_0.memoryStateTime::PRE_PDN 263064448818                       # Time in different power states
system.mem_ctrls0_0.memoryStateTime::ACT  99097077102                       # Time in different power states
system.mem_ctrls0_0.memoryStateTime::ACT_PDN 881765591041                       # Time in different power states
system.mem_ctrls0_1.actEnergy              7070113680                       # Energy for activate commands per rank (pJ)
system.mem_ctrls0_1.preEnergy              3757831770                       # Energy for precharge commands per rank (pJ)
system.mem_ctrls0_1.readEnergy             7826511000                       # Energy for read commands per rank (pJ)
system.mem_ctrls0_1.writeEnergy            2281421880                       # Energy for write commands per rank (pJ)
system.mem_ctrls0_1.refreshEnergy        110866304640.000031                       # Energy for refresh commands per rank (pJ)
system.mem_ctrls0_1.actBackEnergy         64432924260                       # Energy for active background per rank (pJ)
system.mem_ctrls0_1.preBackEnergy          3751402080                       # Energy for precharge background per rank (pJ)
system.mem_ctrls0_1.actPowerDownEnergy   401242785270                       # Energy for active power-down per rank (pJ)
system.mem_ctrls0_1.prePowerDownEnergy   101093430720                       # Energy for precharge power-down per rank (pJ)
system.mem_ctrls0_1.selfRefreshEnergy     33494408775                       # Energy for self refresh per rank (pJ)
system.mem_ctrls0_1.totalEnergy          735846080955                       # Total energy per rank (pJ)
system.mem_ctrls0_1.averagePower           526.053118                       # Core power per rank (mW)
system.mem_ctrls0_1.totalIdleTime        1247668331928                       # Total Idle time Per DRAM Rank
system.mem_ctrls0_1.memoryStateTime::IDLE   4960714055                       # Time in different power states
system.mem_ctrls0_1.memoryStateTime::REF  46991414000                       # Time in different power states
system.mem_ctrls0_1.memoryStateTime::SREF 104489081530                       # Time in different power states
system.mem_ctrls0_1.memoryStateTime::PRE_PDN 263262564155                       # Time in different power states
system.mem_ctrls0_1.memoryStateTime::ACT  99184866690                       # Time in different power states
system.mem_ctrls0_1.memoryStateTime::ACT_PDN 879917016374                       # Time in different power states
system.mem_ctrls1.pwrStateResidencyTicks::UNDEFINED 118633502088990                       # Cumulative time (in ticks) in various power states
system.mem_ctrls1.bytes_read::cpu.inst             64                       # Number of bytes read from this memory
system.mem_ctrls1.bytes_read::switch_cpus.inst        22464                       # Number of bytes read from this memory
system.mem_ctrls1.bytes_read::switch_cpus.data    118788800                       # Number of bytes read from this memory
system.mem_ctrls1.bytes_read::switch_cpus_1.inst          320                       # Number of bytes read from this memory
system.mem_ctrls1.bytes_read::switch_cpus_1.data     21593088                       # Number of bytes read from this memory
system.mem_ctrls1.bytes_read::total         140404736                       # Number of bytes read from this memory
system.mem_ctrls1.bytes_inst_read::cpu.inst           64                       # Number of instructions bytes read from this memory
system.mem_ctrls1.bytes_inst_read::switch_cpus.inst        22464                       # Number of instructions bytes read from this memory
system.mem_ctrls1.bytes_inst_read::switch_cpus_1.inst          320                       # Number of instructions bytes read from this memory
system.mem_ctrls1.bytes_inst_read::total        22848                       # Number of instructions bytes read from this memory
system.mem_ctrls1.bytes_written::writebacks     55940352                       # Number of bytes written to this memory
system.mem_ctrls1.bytes_written::total       55940352                       # Number of bytes written to this memory
system.mem_ctrls1.num_reads::cpu.inst               1                       # Number of read requests responded to by this memory
system.mem_ctrls1.num_reads::switch_cpus.inst          351                       # Number of read requests responded to by this memory
system.mem_ctrls1.num_reads::switch_cpus.data      1856075                       # Number of read requests responded to by this memory
system.mem_ctrls1.num_reads::switch_cpus_1.inst            5                       # Number of read requests responded to by this memory
system.mem_ctrls1.num_reads::switch_cpus_1.data       337392                       # Number of read requests responded to by this memory
system.mem_ctrls1.num_reads::total            2193824                       # Number of read requests responded to by this memory
system.mem_ctrls1.num_writes::writebacks       874068                       # Number of write requests responded to by this memory
system.mem_ctrls1.num_writes::total            874068                       # Number of write requests responded to by this memory
system.mem_ctrls1.bw_read::cpu.inst                46                       # Total read bandwidth from this memory (bytes/s)
system.mem_ctrls1.bw_read::switch_cpus.inst        16059                       # Total read bandwidth from this memory (bytes/s)
system.mem_ctrls1.bw_read::switch_cpus.data     84921590                       # Total read bandwidth from this memory (bytes/s)
system.mem_ctrls1.bw_read::switch_cpus_1.inst          229                       # Total read bandwidth from this memory (bytes/s)
system.mem_ctrls1.bw_read::switch_cpus_1.data     15436803                       # Total read bandwidth from this memory (bytes/s)
system.mem_ctrls1.bw_read::total            100374727                       # Total read bandwidth from this memory (bytes/s)
system.mem_ctrls1.bw_inst_read::cpu.inst           46                       # Instruction read bandwidth from this memory (bytes/s)
system.mem_ctrls1.bw_inst_read::switch_cpus.inst        16059                       # Instruction read bandwidth from this memory (bytes/s)
system.mem_ctrls1.bw_inst_read::switch_cpus_1.inst          229                       # Instruction read bandwidth from this memory (bytes/s)
system.mem_ctrls1.bw_inst_read::total           16334                       # Instruction read bandwidth from this memory (bytes/s)
system.mem_ctrls1.bw_write::writebacks       39991511                       # Write bandwidth from this memory (bytes/s)
system.mem_ctrls1.bw_write::total            39991511                       # Write bandwidth from this memory (bytes/s)
system.mem_ctrls1.bw_total::writebacks       39991511                       # Total bandwidth to/from this memory (bytes/s)
system.mem_ctrls1.bw_total::cpu.inst               46                       # Total bandwidth to/from this memory (bytes/s)
system.mem_ctrls1.bw_total::switch_cpus.inst        16059                       # Total bandwidth to/from this memory (bytes/s)
system.mem_ctrls1.bw_total::switch_cpus.data     84921590                       # Total bandwidth to/from this memory (bytes/s)
system.mem_ctrls1.bw_total::switch_cpus_1.inst          229                       # Total bandwidth to/from this memory (bytes/s)
system.mem_ctrls1.bw_total::switch_cpus_1.data     15436803                       # Total bandwidth to/from this memory (bytes/s)
system.mem_ctrls1.bw_total::total           140366238                       # Total bandwidth to/from this memory (bytes/s)
system.mem_ctrls1.readReqs                    2193824                       # Number of read requests accepted
system.mem_ctrls1.writeReqs                    874068                       # Number of write requests accepted
system.mem_ctrls1.readBursts                  2193824                       # Number of DRAM read bursts, including those serviced by the write queue
system.mem_ctrls1.writeBursts                  874068                       # Number of DRAM write bursts, including those merged in the write queue
system.mem_ctrls1.bytesReadDRAM             140403200                       # Total number of bytes read from DRAM
system.mem_ctrls1.bytesReadWrQ                   1536                       # Total number of bytes read from write queue
system.mem_ctrls1.bytesWritten               55938560                       # Total number of bytes written to DRAM
system.mem_ctrls1.bytesReadSys              140404736                       # Total read bytes from the system interface side
system.mem_ctrls1.bytesWrittenSys            55940352                       # Total written bytes from the system interface side
system.mem_ctrls1.servicedByWrQ                    24                       # Number of DRAM read bursts serviced by the write queue
system.mem_ctrls1.mergedWrBursts                    0                       # Number of DRAM write bursts merged with an existing one
system.mem_ctrls1.neitherReadNorWriteReqs            0                       # Number of requests that are neither read nor write
system.mem_ctrls1.perBankRdBursts::0           136764                       # Per bank write bursts
system.mem_ctrls1.perBankRdBursts::1           137427                       # Per bank write bursts
system.mem_ctrls1.perBankRdBursts::2           137617                       # Per bank write bursts
system.mem_ctrls1.perBankRdBursts::3           136821                       # Per bank write bursts
system.mem_ctrls1.perBankRdBursts::4           137644                       # Per bank write bursts
system.mem_ctrls1.perBankRdBursts::5           136927                       # Per bank write bursts
system.mem_ctrls1.perBankRdBursts::6           137692                       # Per bank write bursts
system.mem_ctrls1.perBankRdBursts::7           136751                       # Per bank write bursts
system.mem_ctrls1.perBankRdBursts::8           137133                       # Per bank write bursts
system.mem_ctrls1.perBankRdBursts::9           137629                       # Per bank write bursts
system.mem_ctrls1.perBankRdBursts::10          136836                       # Per bank write bursts
system.mem_ctrls1.perBankRdBursts::11          137401                       # Per bank write bursts
system.mem_ctrls1.perBankRdBursts::12          137042                       # Per bank write bursts
system.mem_ctrls1.perBankRdBursts::13          136185                       # Per bank write bursts
system.mem_ctrls1.perBankRdBursts::14          136902                       # Per bank write bursts
system.mem_ctrls1.perBankRdBursts::15          137029                       # Per bank write bursts
system.mem_ctrls1.perBankWrBursts::0            54524                       # Per bank write bursts
system.mem_ctrls1.perBankWrBursts::1            54325                       # Per bank write bursts
system.mem_ctrls1.perBankWrBursts::2            54607                       # Per bank write bursts
system.mem_ctrls1.perBankWrBursts::3            54652                       # Per bank write bursts
system.mem_ctrls1.perBankWrBursts::4            54572                       # Per bank write bursts
system.mem_ctrls1.perBankWrBursts::5            54563                       # Per bank write bursts
system.mem_ctrls1.perBankWrBursts::6            55174                       # Per bank write bursts
system.mem_ctrls1.perBankWrBursts::7            54489                       # Per bank write bursts
system.mem_ctrls1.perBankWrBursts::8            54726                       # Per bank write bursts
system.mem_ctrls1.perBankWrBursts::9            54995                       # Per bank write bursts
system.mem_ctrls1.perBankWrBursts::10           54667                       # Per bank write bursts
system.mem_ctrls1.perBankWrBursts::11           54553                       # Per bank write bursts
system.mem_ctrls1.perBankWrBursts::12           54687                       # Per bank write bursts
system.mem_ctrls1.perBankWrBursts::13           54568                       # Per bank write bursts
system.mem_ctrls1.perBankWrBursts::14           54496                       # Per bank write bursts
system.mem_ctrls1.perBankWrBursts::15           54442                       # Per bank write bursts
system.mem_ctrls1.numRdRetry                        0                       # Number of times read queue was full causing retry
system.mem_ctrls1.numWrRetry                        0                       # Number of times write queue was full causing retry
system.mem_ctrls1.totGap                 1398805382079                       # Total gap between requests
system.mem_ctrls1.readPktSize::0                    0                       # Read request sizes (log2)
system.mem_ctrls1.readPktSize::1                    0                       # Read request sizes (log2)
system.mem_ctrls1.readPktSize::2                    0                       # Read request sizes (log2)
system.mem_ctrls1.readPktSize::3                    0                       # Read request sizes (log2)
system.mem_ctrls1.readPktSize::4                    0                       # Read request sizes (log2)
system.mem_ctrls1.readPktSize::5                    0                       # Read request sizes (log2)
system.mem_ctrls1.readPktSize::6              2193824                       # Read request sizes (log2)
system.mem_ctrls1.writePktSize::0                   0                       # Write request sizes (log2)
system.mem_ctrls1.writePktSize::1                   0                       # Write request sizes (log2)
system.mem_ctrls1.writePktSize::2                   0                       # Write request sizes (log2)
system.mem_ctrls1.writePktSize::3                   0                       # Write request sizes (log2)
system.mem_ctrls1.writePktSize::4                   0                       # Write request sizes (log2)
system.mem_ctrls1.writePktSize::5                   0                       # Write request sizes (log2)
system.mem_ctrls1.writePktSize::6              874068                       # Write request sizes (log2)
system.mem_ctrls1.rdQLenPdf::0                2104508                       # What read queue length does an incoming req see
system.mem_ctrls1.rdQLenPdf::1                  74131                       # What read queue length does an incoming req see
system.mem_ctrls1.rdQLenPdf::2                  13489                       # What read queue length does an incoming req see
system.mem_ctrls1.rdQLenPdf::3                   1672                       # What read queue length does an incoming req see
system.mem_ctrls1.rdQLenPdf::4                      0                       # What read queue length does an incoming req see
system.mem_ctrls1.rdQLenPdf::5                      0                       # What read queue length does an incoming req see
system.mem_ctrls1.rdQLenPdf::6                      0                       # What read queue length does an incoming req see
system.mem_ctrls1.rdQLenPdf::7                      0                       # What read queue length does an incoming req see
system.mem_ctrls1.rdQLenPdf::8                      0                       # What read queue length does an incoming req see
system.mem_ctrls1.rdQLenPdf::9                      0                       # What read queue length does an incoming req see
system.mem_ctrls1.rdQLenPdf::10                     0                       # What read queue length does an incoming req see
system.mem_ctrls1.rdQLenPdf::11                     0                       # What read queue length does an incoming req see
system.mem_ctrls1.rdQLenPdf::12                     0                       # What read queue length does an incoming req see
system.mem_ctrls1.rdQLenPdf::13                     0                       # What read queue length does an incoming req see
system.mem_ctrls1.rdQLenPdf::14                     0                       # What read queue length does an incoming req see
system.mem_ctrls1.rdQLenPdf::15                     0                       # What read queue length does an incoming req see
system.mem_ctrls1.rdQLenPdf::16                     0                       # What read queue length does an incoming req see
system.mem_ctrls1.rdQLenPdf::17                     0                       # What read queue length does an incoming req see
system.mem_ctrls1.rdQLenPdf::18                     0                       # What read queue length does an incoming req see
system.mem_ctrls1.rdQLenPdf::19                     0                       # What read queue length does an incoming req see
system.mem_ctrls1.rdQLenPdf::20                     0                       # What read queue length does an incoming req see
system.mem_ctrls1.rdQLenPdf::21                     0                       # What read queue length does an incoming req see
system.mem_ctrls1.rdQLenPdf::22                     0                       # What read queue length does an incoming req see
system.mem_ctrls1.rdQLenPdf::23                     0                       # What read queue length does an incoming req see
system.mem_ctrls1.rdQLenPdf::24                     0                       # What read queue length does an incoming req see
system.mem_ctrls1.rdQLenPdf::25                     0                       # What read queue length does an incoming req see
system.mem_ctrls1.rdQLenPdf::26                     0                       # What read queue length does an incoming req see
system.mem_ctrls1.rdQLenPdf::27                     0                       # What read queue length does an incoming req see
system.mem_ctrls1.rdQLenPdf::28                     0                       # What read queue length does an incoming req see
system.mem_ctrls1.rdQLenPdf::29                     0                       # What read queue length does an incoming req see
system.mem_ctrls1.rdQLenPdf::30                     0                       # What read queue length does an incoming req see
system.mem_ctrls1.rdQLenPdf::31                     0                       # What read queue length does an incoming req see
system.mem_ctrls1.wrQLenPdf::0                      2                       # What write queue length does an incoming req see
system.mem_ctrls1.wrQLenPdf::1                      2                       # What write queue length does an incoming req see
system.mem_ctrls1.wrQLenPdf::2                      2                       # What write queue length does an incoming req see
system.mem_ctrls1.wrQLenPdf::3                      2                       # What write queue length does an incoming req see
system.mem_ctrls1.wrQLenPdf::4                      2                       # What write queue length does an incoming req see
system.mem_ctrls1.wrQLenPdf::5                      2                       # What write queue length does an incoming req see
system.mem_ctrls1.wrQLenPdf::6                      2                       # What write queue length does an incoming req see
system.mem_ctrls1.wrQLenPdf::7                      2                       # What write queue length does an incoming req see
system.mem_ctrls1.wrQLenPdf::8                      2                       # What write queue length does an incoming req see
system.mem_ctrls1.wrQLenPdf::9                      2                       # What write queue length does an incoming req see
system.mem_ctrls1.wrQLenPdf::10                     2                       # What write queue length does an incoming req see
system.mem_ctrls1.wrQLenPdf::11                     2                       # What write queue length does an incoming req see
system.mem_ctrls1.wrQLenPdf::12                     2                       # What write queue length does an incoming req see
system.mem_ctrls1.wrQLenPdf::13                     2                       # What write queue length does an incoming req see
system.mem_ctrls1.wrQLenPdf::14                     2                       # What write queue length does an incoming req see
system.mem_ctrls1.wrQLenPdf::15                 37861                       # What write queue length does an incoming req see
system.mem_ctrls1.wrQLenPdf::16                 38887                       # What write queue length does an incoming req see
system.mem_ctrls1.wrQLenPdf::17                 48920                       # What write queue length does an incoming req see
system.mem_ctrls1.wrQLenPdf::18                 49715                       # What write queue length does an incoming req see
system.mem_ctrls1.wrQLenPdf::19                 49787                       # What write queue length does an incoming req see
system.mem_ctrls1.wrQLenPdf::20                 49799                       # What write queue length does an incoming req see
system.mem_ctrls1.wrQLenPdf::21                 49800                       # What write queue length does an incoming req see
system.mem_ctrls1.wrQLenPdf::22                 49847                       # What write queue length does an incoming req see
system.mem_ctrls1.wrQLenPdf::23                 49873                       # What write queue length does an incoming req see
system.mem_ctrls1.wrQLenPdf::24                 49920                       # What write queue length does an incoming req see
system.mem_ctrls1.wrQLenPdf::25                 50345                       # What write queue length does an incoming req see
system.mem_ctrls1.wrQLenPdf::26                 50062                       # What write queue length does an incoming req see
system.mem_ctrls1.wrQLenPdf::27                 49870                       # What write queue length does an incoming req see
system.mem_ctrls1.wrQLenPdf::28                 49890                       # What write queue length does an incoming req see
system.mem_ctrls1.wrQLenPdf::29                 49933                       # What write queue length does an incoming req see
system.mem_ctrls1.wrQLenPdf::30                 50014                       # What write queue length does an incoming req see
system.mem_ctrls1.wrQLenPdf::31                 49766                       # What write queue length does an incoming req see
system.mem_ctrls1.wrQLenPdf::32                 49735                       # What write queue length does an incoming req see
system.mem_ctrls1.wrQLenPdf::33                    13                       # What write queue length does an incoming req see
system.mem_ctrls1.wrQLenPdf::34                     1                       # What write queue length does an incoming req see
system.mem_ctrls1.wrQLenPdf::35                     0                       # What write queue length does an incoming req see
system.mem_ctrls1.wrQLenPdf::36                     0                       # What write queue length does an incoming req see
system.mem_ctrls1.wrQLenPdf::37                     0                       # What write queue length does an incoming req see
system.mem_ctrls1.wrQLenPdf::38                     0                       # What write queue length does an incoming req see
system.mem_ctrls1.wrQLenPdf::39                     0                       # What write queue length does an incoming req see
system.mem_ctrls1.wrQLenPdf::40                     0                       # What write queue length does an incoming req see
system.mem_ctrls1.wrQLenPdf::41                     0                       # What write queue length does an incoming req see
system.mem_ctrls1.wrQLenPdf::42                     0                       # What write queue length does an incoming req see
system.mem_ctrls1.wrQLenPdf::43                     0                       # What write queue length does an incoming req see
system.mem_ctrls1.wrQLenPdf::44                     0                       # What write queue length does an incoming req see
system.mem_ctrls1.wrQLenPdf::45                     0                       # What write queue length does an incoming req see
system.mem_ctrls1.wrQLenPdf::46                     0                       # What write queue length does an incoming req see
system.mem_ctrls1.wrQLenPdf::47                     0                       # What write queue length does an incoming req see
system.mem_ctrls1.wrQLenPdf::48                     0                       # What write queue length does an incoming req see
system.mem_ctrls1.wrQLenPdf::49                     0                       # What write queue length does an incoming req see
system.mem_ctrls1.wrQLenPdf::50                     0                       # What write queue length does an incoming req see
system.mem_ctrls1.wrQLenPdf::51                     0                       # What write queue length does an incoming req see
system.mem_ctrls1.wrQLenPdf::52                     0                       # What write queue length does an incoming req see
system.mem_ctrls1.wrQLenPdf::53                     0                       # What write queue length does an incoming req see
system.mem_ctrls1.wrQLenPdf::54                     0                       # What write queue length does an incoming req see
system.mem_ctrls1.wrQLenPdf::55                     0                       # What write queue length does an incoming req see
system.mem_ctrls1.wrQLenPdf::56                     0                       # What write queue length does an incoming req see
system.mem_ctrls1.wrQLenPdf::57                     0                       # What write queue length does an incoming req see
system.mem_ctrls1.wrQLenPdf::58                     0                       # What write queue length does an incoming req see
system.mem_ctrls1.wrQLenPdf::59                     0                       # What write queue length does an incoming req see
system.mem_ctrls1.wrQLenPdf::60                     0                       # What write queue length does an incoming req see
system.mem_ctrls1.wrQLenPdf::61                     0                       # What write queue length does an incoming req see
system.mem_ctrls1.wrQLenPdf::62                     0                       # What write queue length does an incoming req see
system.mem_ctrls1.wrQLenPdf::63                     0                       # What write queue length does an incoming req see
system.mem_ctrls1.bytesPerActivate::samples      1978552                       # Bytes accessed per row activation
system.mem_ctrls1.bytesPerActivate::mean    99.234689                       # Bytes accessed per row activation
system.mem_ctrls1.bytesPerActivate::gmean    81.299107                       # Bytes accessed per row activation
system.mem_ctrls1.bytesPerActivate::stdev    92.142302                       # Bytes accessed per row activation
system.mem_ctrls1.bytesPerActivate::0-127      1571648     79.43%     79.43% # Bytes accessed per row activation
system.mem_ctrls1.bytesPerActivate::128-255       251681     12.72%     92.15% # Bytes accessed per row activation
system.mem_ctrls1.bytesPerActivate::256-383        71785      3.63%     95.78% # Bytes accessed per row activation
system.mem_ctrls1.bytesPerActivate::384-511        38603      1.95%     97.73% # Bytes accessed per row activation
system.mem_ctrls1.bytesPerActivate::512-639        44180      2.23%     99.97% # Bytes accessed per row activation
system.mem_ctrls1.bytesPerActivate::640-767          452      0.02%     99.99% # Bytes accessed per row activation
system.mem_ctrls1.bytesPerActivate::768-895          123      0.01%    100.00% # Bytes accessed per row activation
system.mem_ctrls1.bytesPerActivate::896-1023           64      0.00%    100.00% # Bytes accessed per row activation
system.mem_ctrls1.bytesPerActivate::1024-1151           16      0.00%    100.00% # Bytes accessed per row activation
system.mem_ctrls1.bytesPerActivate::total      1978552                       # Bytes accessed per row activation
system.mem_ctrls1.rdPerTurnAround::samples        49712                       # Reads before turning the bus around for writes
system.mem_ctrls1.rdPerTurnAround::mean     44.129405                       # Reads before turning the bus around for writes
system.mem_ctrls1.rdPerTurnAround::gmean    41.994566                       # Reads before turning the bus around for writes
system.mem_ctrls1.rdPerTurnAround::stdev   140.958566                       # Reads before turning the bus around for writes
system.mem_ctrls1.rdPerTurnAround::0-1023        49711    100.00%    100.00% # Reads before turning the bus around for writes
system.mem_ctrls1.rdPerTurnAround::30720-31743            1      0.00%    100.00% # Reads before turning the bus around for writes
system.mem_ctrls1.rdPerTurnAround::total        49712                       # Reads before turning the bus around for writes
system.mem_ctrls1.wrPerTurnAround::samples        49712                       # Writes before turning the bus around for reads
system.mem_ctrls1.wrPerTurnAround::mean     17.582073                       # Writes before turning the bus around for reads
system.mem_ctrls1.wrPerTurnAround::gmean    17.559671                       # Writes before turning the bus around for reads
system.mem_ctrls1.wrPerTurnAround::stdev     0.871835                       # Writes before turning the bus around for reads
system.mem_ctrls1.wrPerTurnAround::16           10838     21.80%     21.80% # Writes before turning the bus around for reads
system.mem_ctrls1.wrPerTurnAround::17             941      1.89%     23.69% # Writes before turning the bus around for reads
system.mem_ctrls1.wrPerTurnAround::18           36207     72.83%     96.53% # Writes before turning the bus around for reads
system.mem_ctrls1.wrPerTurnAround::19            1632      3.28%     99.81% # Writes before turning the bus around for reads
system.mem_ctrls1.wrPerTurnAround::20              82      0.16%     99.98% # Writes before turning the bus around for reads
system.mem_ctrls1.wrPerTurnAround::21              10      0.02%    100.00% # Writes before turning the bus around for reads
system.mem_ctrls1.wrPerTurnAround::23               1      0.00%    100.00% # Writes before turning the bus around for reads
system.mem_ctrls1.wrPerTurnAround::28               1      0.00%    100.00% # Writes before turning the bus around for reads
system.mem_ctrls1.wrPerTurnAround::total        49712                       # Writes before turning the bus around for reads
system.mem_ctrls1.totQLat                 59868699897                       # Total ticks spent queuing
system.mem_ctrls1.totMemAccLat           101002449897                       # Total ticks spent from burst creation until serviced by the DRAM
system.mem_ctrls1.totBusLat               10969000000                       # Total ticks spent in databus transfers
system.mem_ctrls1.avgQLat                    27289.95                       # Average queueing delay per DRAM burst
system.mem_ctrls1.avgBusLat                   5000.00                       # Average bus latency per DRAM burst
system.mem_ctrls1.avgMemAccLat               46039.95                       # Average memory access latency per DRAM burst
system.mem_ctrls1.avgRdBW                      100.37                       # Average DRAM read bandwidth in MiByte/s
system.mem_ctrls1.avgWrBW                       39.99                       # Average achieved write bandwidth in MiByte/s
system.mem_ctrls1.avgRdBWSys                   100.37                       # Average system read bandwidth in MiByte/s
system.mem_ctrls1.avgWrBWSys                    39.99                       # Average system write bandwidth in MiByte/s
system.mem_ctrls1.peakBW                     12800.00                       # Theoretical peak bandwidth in MiByte/s
system.mem_ctrls1.busUtil                        1.10                       # Data bus utilization in percentage
system.mem_ctrls1.busUtilRead                    0.78                       # Data bus utilization in percentage for reads
system.mem_ctrls1.busUtilWrite                   0.31                       # Data bus utilization in percentage for writes
system.mem_ctrls1.avgRdQLen                      1.02                       # Average read queue length when enqueuing
system.mem_ctrls1.avgWrQLen                     24.26                       # Average write queue length when enqueuing
system.mem_ctrls1.readRowHits                  897210                       # Number of row buffer hits during reads
system.mem_ctrls1.writeRowHits                 192066                       # Number of row buffer hits during writes
system.mem_ctrls1.readRowHitRate                40.90                       # Row buffer hit rate for reads
system.mem_ctrls1.writeRowHitRate               21.97                       # Row buffer hit rate for writes
system.mem_ctrls1.avgGap                    455950.01                       # Average gap between requests
system.mem_ctrls1.pageHitRate                   35.51                       # Row buffer hit rate, read and write combined
system.mem_ctrls1_0.actEnergy              7059796380                       # Energy for activate commands per rank (pJ)
system.mem_ctrls1_0.preEnergy              3752340405                       # Energy for precharge commands per rank (pJ)
system.mem_ctrls1_0.readEnergy             7837171020                       # Energy for read commands per rank (pJ)
system.mem_ctrls1_0.writeEnergy            2280649320                       # Energy for write commands per rank (pJ)
system.mem_ctrls1_0.refreshEnergy        110885973120.000031                       # Energy for refresh commands per rank (pJ)
system.mem_ctrls1_0.actBackEnergy         64524421230                       # Energy for active background per rank (pJ)
system.mem_ctrls1_0.preBackEnergy          3742869600                       # Energy for precharge background per rank (pJ)
system.mem_ctrls1_0.actPowerDownEnergy   402117411510                       # Energy for active power-down per rank (pJ)
system.mem_ctrls1_0.prePowerDownEnergy   100767428640                       # Energy for precharge power-down per rank (pJ)
system.mem_ctrls1_0.selfRefreshEnergy     33119413860                       # Energy for self refresh per rank (pJ)
system.mem_ctrls1_0.totalEnergy          736118554755                       # Total energy per rank (pJ)
system.mem_ctrls1_0.averagePower           526.247904                       # Core power per rank (mW)
system.mem_ctrls1_0.totalIdleTime        1247477571968                       # Total Idle time Per DRAM Rank
system.mem_ctrls1_0.memoryStateTime::IDLE   4939466136                       # Time in different power states
system.mem_ctrls1_0.memoryStateTime::REF  46998492000                       # Time in different power states
system.mem_ctrls1_0.memoryStateTime::SREF 103236845004                       # Time in different power states
system.mem_ctrls1_0.memoryStateTime::PRE_PDN 262408150803                       # Time in different power states
system.mem_ctrls1_0.memoryStateTime::ACT  99390023675                       # Time in different power states
system.mem_ctrls1_0.memoryStateTime::ACT_PDN 881832679186                       # Time in different power states
system.mem_ctrls1_1.actEnergy              7067150580                       # Energy for activate commands per rank (pJ)
system.mem_ctrls1_1.preEnergy              3756264435                       # Energy for precharge commands per rank (pJ)
system.mem_ctrls1_1.readEnergy             7826560980                       # Energy for read commands per rank (pJ)
system.mem_ctrls1_1.writeEnergy            2281839480                       # Energy for write commands per rank (pJ)
system.mem_ctrls1_1.refreshEnergy        110817133440.000031                       # Energy for refresh commands per rank (pJ)
system.mem_ctrls1_1.actBackEnergy         63965312220                       # Energy for active background per rank (pJ)
system.mem_ctrls1_1.preBackEnergy          3750838080                       # Energy for precharge background per rank (pJ)
system.mem_ctrls1_1.actPowerDownEnergy   401508181260                       # Energy for active power-down per rank (pJ)
system.mem_ctrls1_1.prePowerDownEnergy   101022065280                       # Energy for precharge power-down per rank (pJ)
system.mem_ctrls1_1.selfRefreshEnergy     33646611060                       # Energy for self refresh per rank (pJ)
system.mem_ctrls1_1.totalEnergy          735671062215                       # Total energy per rank (pJ)
system.mem_ctrls1_1.averagePower           525.927995                       # Core power per rank (mW)
system.mem_ctrls1_1.totalIdleTime        1248698105260                       # Total Idle time Per DRAM Rank
system.mem_ctrls1_1.memoryStateTime::IDLE   4960891220                       # Time in different power states
system.mem_ctrls1_1.memoryStateTime::REF  46970506000                       # Time in different power states
system.mem_ctrls1_1.memoryStateTime::SREF 105119579766                       # Time in different power states
system.mem_ctrls1_1.memoryStateTime::PRE_PDN 263080704274                       # Time in different power states
system.mem_ctrls1_1.memoryStateTime::ACT  98176035315                       # Time in different power states
system.mem_ctrls1_1.memoryStateTime::ACT_PDN 880497940229                       # Time in different power states
system.pwrStateResidencyTicks::UNDEFINED 118633502088990                       # Cumulative time (in ticks) in various power states
system.cpu.branchPred.lookups                       0                       # Number of BP lookups
system.cpu.branchPred.condPredicted                 0                       # Number of conditional branches predicted
system.cpu.branchPred.condIncorrect                 0                       # Number of conditional branches incorrect
system.cpu.branchPred.BTBLookups                    0                       # Number of BTB lookups
system.cpu.branchPred.BTBHits                       0                       # Number of BTB hits
system.cpu.branchPred.BTBCorrect                    0                       # Number of correct BTB predictions (this stat may not work properly.
system.cpu.branchPred.BTBHitPct                   nan                       # BTB Hit Percentage
system.cpu.branchPred.usedRAS                       0                       # Number of times the RAS was used to get a target.
system.cpu.branchPred.RASInCorrect                  0                       # Number of incorrect RAS predictions.
system.cpu.branchPred.indirectLookups               0                       # Number of indirect predictor lookups.
system.cpu.branchPred.indirectHits                  0                       # Number of indirect target hits.
system.cpu.branchPred.indirectMisses                0                       # Number of indirect misses.
system.cpu.branchPredindirectMispredicted            0                       # Number of mispredicted indirect branches.
system.cpu_voltage_domain.voltage                   1                       # Voltage in Volts
system.cpu_clk_domain.clock                       333                       # Clock period in ticks
system.cpu.dtb.fetch_hits                           0                       # ITB hits
system.cpu.dtb.fetch_misses                         0                       # ITB misses
system.cpu.dtb.fetch_acv                            0                       # ITB acv
system.cpu.dtb.fetch_accesses                       0                       # ITB accesses
system.cpu.dtb.read_hits                            0                       # DTB read hits
system.cpu.dtb.read_misses                          0                       # DTB read misses
system.cpu.dtb.read_acv                             0                       # DTB read access violations
system.cpu.dtb.read_accesses                        0                       # DTB read accesses
system.cpu.dtb.write_hits                           0                       # DTB write hits
system.cpu.dtb.write_misses                         0                       # DTB write misses
system.cpu.dtb.write_acv                            0                       # DTB write access violations
system.cpu.dtb.write_accesses                       0                       # DTB write accesses
system.cpu.dtb.data_hits                            0                       # DTB hits
system.cpu.dtb.data_misses                          0                       # DTB misses
system.cpu.dtb.data_acv                             0                       # DTB access violations
system.cpu.dtb.data_accesses                        0                       # DTB accesses
system.cpu.itb.fetch_hits                           3                       # ITB hits
system.cpu.itb.fetch_misses                         0                       # ITB misses
system.cpu.itb.fetch_acv                            0                       # ITB acv
system.cpu.itb.fetch_accesses                       3                       # ITB accesses
system.cpu.itb.read_hits                            0                       # DTB read hits
system.cpu.itb.read_misses                          0                       # DTB read misses
system.cpu.itb.read_acv                             0                       # DTB read access violations
system.cpu.itb.read_accesses                        0                       # DTB read accesses
system.cpu.itb.write_hits                           0                       # DTB write hits
system.cpu.itb.write_misses                         0                       # DTB write misses
system.cpu.itb.write_acv                            0                       # DTB write access violations
system.cpu.itb.write_accesses                       0                       # DTB write accesses
system.cpu.itb.data_hits                            0                       # DTB hits
system.cpu.itb.data_misses                          0                       # DTB misses
system.cpu.itb.data_acv                             0                       # DTB access violations
system.cpu.itb.data_accesses                        0                       # DTB accesses
system.cpu.workload.num_syscalls                    0                       # Number of system calls
system.cpu.pwrStateResidencyTicks::ON    1398805656804                       # Cumulative time (in ticks) in various power states
system.cpu.numCycles                              372                       # number of cpu cycles simulated
system.cpu.numWorkItemsStarted                      0                       # number of work items this cpu started
system.cpu.numWorkItemsCompleted                    0                       # number of work items this cpu completed
system.cpu.fetch.icacheStallCycles                 23                       # Number of cycles fetch is stalled on an Icache miss
system.cpu.fetch.Insts                              7                       # Number of instructions fetch has processed
system.cpu.fetch.Cycles                             1                       # Number of cycles fetch has run and was not squashing or blocked
system.cpu.fetch.SquashCycles                       3                       # Number of cycles fetch has spent squashing
system.cpu.fetch.PendingDrainCycles                 3                       # Number of cycles fetch has spent waiting on pipes to drain
system.cpu.fetch.CacheLines                         3                       # Number of cache lines fetched
system.cpu.fetch.IcacheSquashes                     2                       # Number of outstanding Icache misses that were squashed
system.cpu.fetch.rateDist::samples                 28                       # Number of instructions fetched each cycle (Total)
system.cpu.fetch.rateDist::mean              0.250000                       # Number of instructions fetched each cycle (Total)
system.cpu.fetch.rateDist::stdev             1.322876                       # Number of instructions fetched each cycle (Total)
system.cpu.fetch.rateDist::underflows               0      0.00%      0.00% # Number of instructions fetched each cycle (Total)
system.cpu.fetch.rateDist::0                       27     96.43%     96.43% # Number of instructions fetched each cycle (Total)
system.cpu.fetch.rateDist::1                        0      0.00%     96.43% # Number of instructions fetched each cycle (Total)
system.cpu.fetch.rateDist::2                        0      0.00%     96.43% # Number of instructions fetched each cycle (Total)
system.cpu.fetch.rateDist::3                        0      0.00%     96.43% # Number of instructions fetched each cycle (Total)
system.cpu.fetch.rateDist::4                        0      0.00%     96.43% # Number of instructions fetched each cycle (Total)
system.cpu.fetch.rateDist::5                        0      0.00%     96.43% # Number of instructions fetched each cycle (Total)
system.cpu.fetch.rateDist::6                        0      0.00%     96.43% # Number of instructions fetched each cycle (Total)
system.cpu.fetch.rateDist::7                        1      3.57%    100.00% # Number of instructions fetched each cycle (Total)
system.cpu.fetch.rateDist::8                        0      0.00%    100.00% # Number of instructions fetched each cycle (Total)
system.cpu.fetch.rateDist::overflows                0      0.00%    100.00% # Number of instructions fetched each cycle (Total)
system.cpu.fetch.rateDist::min_value                0                       # Number of instructions fetched each cycle (Total)
system.cpu.fetch.rateDist::max_value                7                       # Number of instructions fetched each cycle (Total)
system.cpu.fetch.rateDist::total                   28                       # Number of instructions fetched each cycle (Total)
[...]
system.switch_cpus_1.iq.fu_busy_rate         0.124767                       # FU busy rate (busy events/executed inst)
system.switch_cpus_1.iq.int_inst_queue_reads    381187309                       # Number of integer instruction queue reads
system.switch_cpus_1.iq.int_inst_queue_writes     88303254                       # Number of integer instruction queue writes
system.switch_cpus_1.iq.int_inst_queue_wakeup_accesses     82015875                       # Number of integer instruction queue wakeup accesses
system.switch_cpus_1.iq.fp_inst_queue_reads    277286818                       # Number of floating instruction queue reads
system.switch_cpus_1.iq.fp_inst_queue_writes    139209809                       # Number of floating instruction queue writes
system.switch_cpus_1.iq.fp_inst_queue_wakeup_accesses    125974468                       # Number of floating instruction queue wakeup accesses
system.switch_cpus_1.iq.int_alu_accesses     84663566                       # Number of integer alu accesses
system.switch_cpus_1.iq.fp_alu_accesses     150510457                       # Number of floating point alu accesses
system.switch_cpus_1.iew.lsq.thread0.forwLoads      1422655                       # Number of loads that had data forwarded from stores
system.switch_cpus_1.iew.lsq.thread0.invAddrLoads            0                       # Number of loads ignored due to an invalid address
system.switch_cpus_1.iew.lsq.thread0.squashedLoads      3337394                       # Number of loads squashed
system.switch_cpus_1.iew.lsq.thread0.ignoredResponses           51                       # Number of memory responses ignored because the instruction is squashed
system.switch_cpus_1.iew.lsq.thread0.memOrderViolation         1787                       # Number of memory ordering violations
system.switch_cpus_1.iew.lsq.thread0.squashedStores       796361                       # Number of stores squashed
system.switch_cpus_1.iew.lsq.thread0.invAddrSwpfs            0                       # Number of software prefetches ignored due to an invalid address
system.switch_cpus_1.iew.lsq.thread0.blockedLoads            0                       # Number of blocked loads due to partial load-store forwarding
system.switch_cpus_1.iew.lsq.thread0.rescheduledLoads            0                       # Number of loads that were rescheduled
system.switch_cpus_1.iew.lsq.thread0.cacheBlocked       307741                       # Number of times an access to memory failed due to the cache being blocked
system.switch_cpus_1.iew.iewIdleCycles              0                       # Number of cycles IEW is idle
system.switch_cpus_1.iew.iewSquashCycles       140434                       # Number of cycles IEW is squashing
system.switch_cpus_1.iew.iewBlockCycles      46332585                       # Number of cycles IEW is blocking
system.switch_cpus_1.iew.iewUnblockCycles     14176442                       # Number of cycles IEW is unblocking
system.switch_cpus_1.iew.iewDispatchedInsts    213935012                       # Number of instructions dispatched to IQ
system.switch_cpus_1.iew.iewDispSquashedInsts          701                       # Number of squashed instructions skipped by dispatch
system.switch_cpus_1.iew.iewDispLoadInsts     44137443                       # Number of dispatched load instructions
system.switch_cpus_1.iew.iewDispStoreInsts     13325403                       # Number of dispatched store instructions
system.switch_cpus_1.iew.iewDispNonSpecInsts            0                       # Number of dispatched non-speculative instructions
system.switch_cpus_1.iew.iewIQFullEvents       893825                       # Number of times the IQ has become full, causing a stall
system.switch_cpus_1.iew.iewLSQFullEvents     13042804                       # Number of times the LSQ has become full, causing a stall
system.switch_cpus_1.iew.memOrderViolationEvents         1787                       # Number of memory order violations
system.switch_cpus_1.iew.predictedTakenIncorrect          548                       # Number of branches that were predicted taken incorrectly
system.switch_cpus_1.iew.predictedNotTakenIncorrect        15421                       # Number of branches that were predicted not taken incorrectly
system.switch_cpus_1.iew.branchMispredicts        15969                       # Number of branch mispredicts detected at execute
system.switch_cpus_1.iew.iewExecutedInsts    208880282                       # Number of executed instructions
system.switch_cpus_1.iew.iewExecLoadInsts     44105734                       # Number of load instructions executed
system.switch_cpus_1.iew.iewExecSquashedInsts       206666                       # Number of squashed instructions skipped in execute
system.switch_cpus_1.iew.exec_swp                   0                       # number of swp insts executed
system.switch_cpus_1.iew.exec_nop              179336                       # number of nop insts executed
system.switch_cpus_1.iew.exec_refs           57059548                       # number of memory reference insts executed
system.switch_cpus_1.iew.exec_branches        1499237                       # Number of branches executed
system.switch_cpus_1.iew.exec_stores         12953814                       # Number of stores executed
system.switch_cpus_1.iew.exec_rate           0.975198                       # Inst execution rate
system.switch_cpus_1.iew.wb_sent            208443436                       # cumulative count of insts sent to commit
system.switch_cpus_1.iew.wb_count           207990343                       # cumulative count of insts written-back
system.switch_cpus_1.iew.wb_producers       138520208                       # num instructions producing a value
system.switch_cpus_1.iew.wb_consumers       165944981                       # num instructions consuming a value
system.switch_cpus_1.iew.wb_rate             0.971043                       # insts written-back per cycle
system.switch_cpus_1.iew.wb_fanout           0.834736                       # average fanout of values written-back
system.switch_cpus_1.commit.commitSquashedInsts     11081106                       # The number of squashed insts skipped by commit
system.switch_cpus_1.commit.branchMispredicts        15475                       # The number of times a branch was mispredicted
system.switch_cpus_1.commit.committed_per_cycle::samples    212755017                       # Number of insts commited each cycle
system.switch_cpus_1.commit.committed_per_cycle::mean     0.940864                       # Number of insts commited each cycle
system.switch_cpus_1.commit.committed_per_cycle::stdev     2.388622                       # Number of insts commited each cycle
system.switch_cpus_1.commit.committed_per_cycle::underflows            0      0.00%      0.00% # Number of insts commited each cycle
system.switch_cpus_1.commit.committed_per_cycle::0    177859777     83.60%     83.60% # Number of insts commited each cycle
system.switch_cpus_1.commit.committed_per_cycle::1      3949955      1.86%     85.45% # Number of insts commited each cycle
system.switch_cpus_1.commit.committed_per_cycle::2      2989177      1.40%     86.86% # Number of insts commited each cycle
system.switch_cpus_1.commit.committed_per_cycle::3      2718043      1.28%     88.14% # Number of insts commited each cycle
system.switch_cpus_1.commit.committed_per_cycle::4      2418744      1.14%     89.27% # Number of insts commited each cycle
system.switch_cpus_1.commit.committed_per_cycle::5      2004773      0.94%     90.22% # Number of insts commited each cycle
system.switch_cpus_1.commit.committed_per_cycle::6      1378453      0.65%     90.86% # Number of insts commited each cycle
system.switch_cpus_1.commit.committed_per_cycle::7      1367301      0.64%     91.51% # Number of insts commited each cycle
system.switch_cpus_1.commit.committed_per_cycle::8     18068794      8.49%    100.00% # Number of insts commited each cycle
system.switch_cpus_1.commit.committed_per_cycle::overflows            0      0.00%    100.00% # Number of insts commited each cycle
system.switch_cpus_1.commit.committed_per_cycle::min_value            0                       # Number of insts commited each cycle
system.switch_cpus_1.commit.committed_per_cycle::max_value            8                       # Number of insts commited each cycle
system.switch_cpus_1.commit.committed_per_cycle::total    212755017                       # Number of insts commited each cycle
system.switch_cpus_1.commit.committedInsts    200173456                       # Number of instructions committed
system.switch_cpus_1.commit.committedOps    200173456                       # Number of ops (including micro ops) committed
system.switch_cpus_1.commit.swp_count               0                       # Number of s/w prefetches committed
system.switch_cpus_1.commit.refs             53329056                       # Number of memory references committed
system.switch_cpus_1.commit.loads            40800023                       # Number of loads committed
system.switch_cpus_1.commit.membars                 0                       # Number of memory barriers committed
system.switch_cpus_1.commit.branches          1403066                       # Number of branches committed
system.switch_cpus_1.commit.fp_insts        122294760                       # Number of committed floating point instructions.
system.switch_cpus_1.commit.int_insts       127004953                       # Number of committed integer instructions.
system.switch_cpus_1.commit.function_calls            7                       # Number of function calls committed.
system.switch_cpus_1.commit.op_class_0::No_OpClass       173452      0.09%      0.09% # Class of committed instruction
system.switch_cpus_1.commit.op_class_0::IntAlu     61200061     30.57%     30.66% # Class of committed instruction
system.switch_cpus_1.commit.op_class_0::IntMult            0      0.00%     30.66% # Class of committed instruction
system.switch_cpus_1.commit.op_class_0::IntDiv            0      0.00%     30.66% # Class of committed instruction
system.switch_cpus_1.commit.op_class_0::FloatAdd     35376177     17.67%     48.33% # Class of committed instruction
system.switch_cpus_1.commit.op_class_0::FloatCmp      8364224      4.18%     52.51% # Class of committed instruction
system.switch_cpus_1.commit.op_class_0::FloatCvt     12546336      6.27%     58.78% # Class of committed instruction
system.switch_cpus_1.commit.op_class_0::FloatMult     26817554     13.40%     72.18% # Class of committed instruction
system.switch_cpus_1.commit.op_class_0::FloatMultAcc            0      0.00%     72.18% # Class of committed instruction
system.switch_cpus_1.commit.op_class_0::FloatDiv      2366596      1.18%     73.36% # Class of committed instruction
system.switch_cpus_1.commit.op_class_0::FloatMisc            0      0.00%     73.36% # Class of committed instruction
system.switch_cpus_1.commit.op_class_0::FloatSqrt            0      0.00%     73.36% # Class of committed instruction
system.switch_cpus_1.commit.op_class_0::SimdAdd            0      0.00%     73.36% # Class of committed instruction
system.switch_cpus_1.commit.op_class_0::SimdAddAcc            0      0.00%     73.36% # Class of committed instruction
system.switch_cpus_1.commit.op_class_0::SimdAlu            0      0.00%     73.36% # Class of committed instruction
system.switch_cpus_1.commit.op_class_0::SimdCmp            0      0.00%     73.36% # Class of committed instruction
system.switch_cpus_1.commit.op_class_0::SimdCvt            0      0.00%     73.36% # Class of committed instruction
system.switch_cpus_1.commit.op_class_0::SimdMisc            0      0.00%     73.36% # Class of committed instruction
system.switch_cpus_1.commit.op_class_0::SimdMult            0      0.00%     73.36% # Class of committed instruction
system.switch_cpus_1.commit.op_class_0::SimdMultAcc            0      0.00%     73.36% # Class of committed instruction
system.switch_cpus_1.commit.op_class_0::SimdShift            0      0.00%     73.36% # Class of committed instruction
system.switch_cpus_1.commit.op_class_0::SimdShiftAcc            0      0.00%     73.36% # Class of committed instruction
system.switch_cpus_1.commit.op_class_0::SimdSqrt            0      0.00%     73.36% # Class of committed instruction
system.switch_cpus_1.commit.op_class_0::SimdFloatAdd            0      0.00%     73.36% # Class of committed instruction
system.switch_cpus_1.commit.op_class_0::SimdFloatAlu            0      0.00%     73.36% # Class of committed instruction
system.switch_cpus_1.commit.op_class_0::SimdFloatCmp            0      0.00%     73.36% # Class of committed instruction
system.switch_cpus_1.commit.op_class_0::SimdFloatCvt            0      0.00%     73.36% # Class of committed instruction
system.switch_cpus_1.commit.op_class_0::SimdFloatDiv            0      0.00%     73.36% # Class of committed instruction
system.switch_cpus_1.commit.op_class_0::SimdFloatMisc            0      0.00%     73.36% # Class of committed instruction
system.switch_cpus_1.commit.op_class_0::SimdFloatMult            0      0.00%     73.36% # Class of committed instruction
system.switch_cpus_1.commit.op_class_0::SimdFloatMultAcc            0      0.00%     73.36% # Class of committed instruction
system.switch_cpus_1.commit.op_class_0::SimdFloatSqrt            0      0.00%     73.36% # Class of committed instruction
system.switch_cpus_1.commit.op_class_0::MemRead     12460377      6.22%     79.58% # Class of committed instruction
system.switch_cpus_1.commit.op_class_0::MemWrite      4044806      2.02%     81.60% # Class of committed instruction
system.switch_cpus_1.commit.op_class_0::FloatMemRead     28339646     14.16%     95.76% # Class of committed instruction
system.switch_cpus_1.commit.op_class_0::FloatMemWrite      8484227      4.24%    100.00% # Class of committed instruction
system.switch_cpus_1.commit.op_class_0::IprAccess            0      0.00%    100.00% # Class of committed instruction
system.switch_cpus_1.commit.op_class_0::InstPrefetch            0      0.00%    100.00% # Class of committed instruction
system.switch_cpus_1.commit.op_class_0::total    200173456                       # Class of committed instruction
system.switch_cpus_1.commit.bw_lim_events     18068794                       # number cycles where commit BW limit reached
system.switch_cpus_1.rob.rob_reads          404335675                       # The number of ROB reads
system.switch_cpus_1.rob.rob_writes         423944741                       # The number of ROB writes
system.switch_cpus_1.timesIdled                    13                       # Number of times that the entire CPU went into an idle state and unscheduled itself
system.switch_cpus_1.idleCycles                  2208                       # Total number of cycles that the CPU has spent unscheduled due to idling
system.switch_cpus_1.committedInsts         200000004                       # Number of Instructions Simulated
system.switch_cpus_1.committedOps           200000004                       # Number of Ops (including micro ops) Simulated
system.switch_cpus_1.cpi                     1.070964                       # CPI: Cycles Per Instruction
system.switch_cpus_1.cpi_total               1.070964                       # CPI: Total CPI of All Threads
system.switch_cpus_1.ipc                     0.933738                       # IPC: Instructions Per Cycle
system.switch_cpus_1.ipc_total               0.933738                       # IPC: Total IPC of All Threads
system.switch_cpus_1.int_regfile_reads      175647134                       # number of integer regfile reads
system.switch_cpus_1.int_regfile_writes      84673340                       # number of integer regfile writes
system.switch_cpus_1.fp_regfile_reads       170478680                       # number of floating regfile reads
system.switch_cpus_1.fp_regfile_writes      108910553                       # number of floating regfile writes
system.tol3bus.snoop_filter.tot_requests      9621283                       # Total number of requests made to the snoop filter.
system.tol3bus.snoop_filter.hit_single_requests      4808456                       # Number of requests hitting in the snoop filter with a single holder of the requested data.
system.tol3bus.snoop_filter.hit_multi_requests            0                       # Number of requests hitting in the snoop filter with multiple (>1) holders of the requested data.
system.tol3bus.snoop_filter.tot_snoops         145497                       # Total number of snoops made to the snoop filter.
system.tol3bus.snoop_filter.hit_single_snoops       145497                       # Number of snoops hitting in the snoop filter with a single holder of the requested data.
system.tol3bus.snoop_filter.hit_multi_snoops            0                       # Number of snoops hitting in the snoop filter with multiple (>1) holders of the requested data.
system.tol3bus.pwrStateResidencyTicks::UNDEFINED 118633502088990                       # Cumulative time (in ticks) in various power states
system.tol3bus.trans_dist::ReadResp           4255835                       # Transaction distribution
system.tol3bus.trans_dist::WritebackDirty      3572295                       # Transaction distribution
system.tol3bus.trans_dist::CleanEvict         5605039                       # Transaction distribution
system.tol3bus.trans_dist::UpgradeReq               2                       # Transaction distribution
system.tol3bus.trans_dist::UpgradeResp              2                       # Transaction distribution
system.tol3bus.trans_dist::ReadExReq           556992                       # Transaction distribution
system.tol3bus.trans_dist::ReadExResp          556992                       # Transaction distribution
system.tol3bus.trans_dist::ReadSharedReq      4255835                       # Transaction distribution
system.tol3bus.pkt_count_system.cpu.l2.mem_side::system.l3.cpu_side     14434112                       # Packet count per connected master and slave (bytes)
system.tol3bus.pkt_size_system.cpu.l2.mem_side::system.l3.cpu_side    424756928                       # Cumulative packet size per connected master and slave (bytes)
system.tol3bus.snoops                         4368880                       # Total snoops (count)
system.tol3bus.snoopTraffic                 111890880                       # Total snoop traffic (bytes)
system.tol3bus.snoop_fanout::samples          9181709                       # Request fanout histogram
system.tol3bus.snoop_fanout::mean            0.015846                       # Request fanout histogram
system.tol3bus.snoop_fanout::stdev           0.124881                       # Request fanout histogram
system.tol3bus.snoop_fanout::underflows             0      0.00%      0.00% # Request fanout histogram
system.tol3bus.snoop_fanout::0                9036212     98.42%     98.42% # Request fanout histogram
system.tol3bus.snoop_fanout::1                 145497      1.58%    100.00% # Request fanout histogram
system.tol3bus.snoop_fanout::overflows              0      0.00%    100.00% # Request fanout histogram
system.tol3bus.snoop_fanout::min_value              0                       # Request fanout histogram
system.tol3bus.snoop_fanout::max_value              1                       # Request fanout histogram
system.tol3bus.snoop_fanout::total            9181709                       # Request fanout histogram
system.tol3bus.reqLayer0.occupancy         3811279239                       # Layer occupancy (ticks)
system.tol3bus.reqLayer0.utilization              0.3                       # Layer utilization (%)
system.tol3bus.respLayer0.occupancy        3205343448                       # Layer occupancy (ticks)
system.tol3bus.respLayer0.utilization             0.2                       # Layer utilization (%)

---------- End Simulation Statistics   ----------
