
---------- Begin Simulation Statistics ----------
sim_seconds                                  1.418094                       # Number of seconds simulated
sim_ticks                                1418093888265                       # Number of ticks simulated
final_tick                               734370534442251                       # Number of ticks from beginning of simulation (restored from checkpoints and never reset)
sim_freq                                 1000000000000                       # Frequency of simulated ticks
host_inst_rate                                 454497                       # Simulator instruction rate (inst/s)
host_op_rate                                   454497                       # Simulator op (including micro ops) rate (op/s)
host_tick_rate                              537099583                       # Simulator tick rate (ticks/s)
host_mem_usage                                2391012                       # Number of bytes of host memory used
host_seconds                                  2640.28                       # Real time elapsed on the host
sim_insts                                  1200000012                       # Number of instructions simulated
sim_ops                                    1200000012                       # Number of ops (including micro ops) simulated
system.voltage_domain.voltage                       1                       # Voltage in Volts
system.clk_domain.clock                          1000                       # Clock period in ticks
system.mem_ctrls0.pwrStateResidencyTicks::UNDEFINED 734370534442251                       # Cumulative time (in ticks) in various power states
system.mem_ctrls0.bytes_read::cpu.inst            128                       # Number of bytes read from this memory
system.mem_ctrls0.bytes_read::cpu.data            128                       # Number of bytes read from this memory
system.mem_ctrls0.bytes_read::switch_cpus.inst       209664                       # Number of bytes read from this memory
system.mem_ctrls0.bytes_read::switch_cpus.data     52495424                       # Number of bytes read from this memory
system.mem_ctrls0.bytes_read::switch_cpus_1.inst        47552                       # Number of bytes read from this memory
system.mem_ctrls0.bytes_read::switch_cpus_1.data     14657216                       # Number of bytes read from this memory
system.mem_ctrls0.bytes_read::total          67410112                       # Number of bytes read from this memory
system.mem_ctrls0.bytes_inst_read::cpu.inst          128                       # Number of instructions bytes read from this memory
system.mem_ctrls0.bytes_inst_read::switch_cpus.inst       209664                       # Number of instructions bytes read from this memory
system.mem_ctrls0.bytes_inst_read::switch_cpus_1.inst        47552                       # Number of instructions bytes read from this memory
system.mem_ctrls0.bytes_inst_read::total       257344                       # Number of instructions bytes read from this memory
system.mem_ctrls0.bytes_written::writebacks      6827648                       # Number of bytes written to this memory
system.mem_ctrls0.bytes_written::total        6827648                       # Number of bytes written to this memory
system.mem_ctrls0.num_reads::cpu.inst               2                       # Number of read requests responded to by this memory
system.mem_ctrls0.num_reads::cpu.data               2                       # Number of read requests responded to by this memory
system.mem_ctrls0.num_reads::switch_cpus.inst         3276                       # Number of read requests responded to by this memory
system.mem_ctrls0.num_reads::switch_cpus.data       820241                       # Number of read requests responded to by this memory
system.mem_ctrls0.num_reads::switch_cpus_1.inst          743                       # Number of read requests responded to by this memory
system.mem_ctrls0.num_reads::switch_cpus_1.data       229019                       # Number of read requests responded to by this memory
system.mem_ctrls0.num_reads::total            1053283                       # Number of read requests responded to by this memory
system.mem_ctrls0.num_writes::writebacks       106682                       # Number of write requests responded to by this memory
system.mem_ctrls0.num_writes::total            106682                       # Number of write requests responded to by this memory
system.mem_ctrls0.bw_read::cpu.inst                90                       # Total read bandwidth from this memory (bytes/s)
system.mem_ctrls0.bw_read::cpu.data                90                       # Total read bandwidth from this memory (bytes/s)
system.mem_ctrls0.bw_read::switch_cpus.inst       147849                       # Total read bandwidth from this memory (bytes/s)
system.mem_ctrls0.bw_read::switch_cpus.data     37018299                       # Total read bandwidth from this memory (bytes/s)
system.mem_ctrls0.bw_read::switch_cpus_1.inst        33532                       # Total read bandwidth from this memory (bytes/s)
system.mem_ctrls0.bw_read::switch_cpus_1.data     10335857                       # Total read bandwidth from this memory (bytes/s)
system.mem_ctrls0.bw_read::total             47535719                       # Total read bandwidth from this memory (bytes/s)
system.mem_ctrls0.bw_inst_read::cpu.inst           90                       # Instruction read bandwidth from this memory (bytes/s)
system.mem_ctrls0.bw_inst_read::switch_cpus.inst       147849                       # Instruction read bandwidth from this memory (bytes/s)
system.mem_ctrls0.bw_inst_read::switch_cpus_1.inst        33532                       # Instruction read bandwidth from this memory (bytes/s)
system.mem_ctrls0.bw_inst_read::total          181472                       # Instruction read bandwidth from this memory (bytes/s)
system.mem_ctrls0.bw_write::writebacks        4814666                       # Write bandwidth from this memory (bytes/s)
system.mem_ctrls0.bw_write::total             4814666                       # Write bandwidth from this memory (bytes/s)
system.mem_ctrls0.bw_total::writebacks        4814666                       # Total bandwidth to/from this memory (bytes/s)
system.mem_ctrls0.bw_total::cpu.inst               90                       # Total bandwidth to/from this memory (bytes/s)
system.mem_ctrls0.bw_total::cpu.data               90                       # Total bandwidth to/from this memory (bytes/s)
system.mem_ctrls0.bw_total::switch_cpus.inst       147849                       # Total bandwidth to/from this memory (bytes/s)
system.mem_ctrls0.bw_total::switch_cpus.data     37018299                       # Total bandwidth to/from this memory (bytes/s)
system.mem_ctrls0.bw_total::switch_cpus_1.inst        33532                       # Total bandwidth to/from this memory (bytes/s)
system.mem_ctrls0.bw_total::switch_cpus_1.data     10335857                       # Total bandwidth to/from this memory (bytes/s)
system.mem_ctrls0.bw_total::total            52350384                       # Total bandwidth to/from this memory (bytes/s)
system.mem_ctrls0.readReqs                    1053283                       # Number of read requests accepted
system.mem_ctrls0.writeReqs                    106682                       # Number of write requests accepted
system.mem_ctrls0.readBursts                  1053283                       # Number of DRAM read bursts, including those serviced by the write queue
system.mem_ctrls0.writeBursts                  106682                       # Number of DRAM write bursts, including those merged in the write queue
system.mem_ctrls0.bytesReadDRAM              66895808                       # Total number of bytes read from DRAM
system.mem_ctrls0.bytesReadWrQ                 514304                       # Total number of bytes read from write queue
system.mem_ctrls0.bytesWritten                6822656                       # Total number of bytes written to DRAM
system.mem_ctrls0.bytesReadSys               67410112                       # Total read bytes from the system interface side
system.mem_ctrls0.bytesWrittenSys             6827648                       # Total written bytes from the system interface side
system.mem_ctrls0.servicedByWrQ                  8036                       # Number of DRAM read bursts serviced by the write queue
system.mem_ctrls0.mergedWrBursts                   58                       # Number of DRAM write bursts merged with an existing one
system.mem_ctrls0.neitherReadNorWriteReqs            0                       # Number of requests that are neither read nor write
system.mem_ctrls0.perBankRdBursts::0            81828                       # Per bank write bursts
system.mem_ctrls0.perBankRdBursts::1            90746                       # Per bank write bursts
system.mem_ctrls0.perBankRdBursts::2            79785                       # Per bank write bursts
system.mem_ctrls0.perBankRdBursts::3            55927                       # Per bank write bursts
system.mem_ctrls0.perBankRdBursts::4            61823                       # Per bank write bursts
system.mem_ctrls0.perBankRdBursts::5            51476                       # Per bank write bursts
system.mem_ctrls0.perBankRdBursts::6            44923                       # Per bank write bursts
system.mem_ctrls0.perBankRdBursts::7            83910                       # Per bank write bursts
system.mem_ctrls0.perBankRdBursts::8            75778                       # Per bank write bursts
system.mem_ctrls0.perBankRdBursts::9            74903                       # Per bank write bursts
system.mem_ctrls0.perBankRdBursts::10           64322                       # Per bank write bursts
system.mem_ctrls0.perBankRdBursts::11           45385                       # Per bank write bursts
system.mem_ctrls0.perBankRdBursts::12           56006                       # Per bank write bursts
system.mem_ctrls0.perBankRdBursts::13           55407                       # Per bank write bursts
system.mem_ctrls0.perBankRdBursts::14           43315                       # Per bank write bursts
system.mem_ctrls0.perBankRdBursts::15           79713                       # Per bank write bursts
system.mem_ctrls0.perBankWrBursts::0             8920                       # Per bank write bursts
system.mem_ctrls0.perBankWrBursts::1             9902                       # Per bank write bursts
system.mem_ctrls0.perBankWrBursts::2             9909                       # Per bank write bursts
system.mem_ctrls0.perBankWrBursts::3             5918                       # Per bank write bursts
system.mem_ctrls0.perBankWrBursts::4             4105                       # Per bank write bursts
system.mem_ctrls0.perBankWrBursts::5             3813                       # Per bank write bursts
system.mem_ctrls0.perBankWrBursts::6             1917                       # Per bank write bursts
system.mem_ctrls0.perBankWrBursts::7             2429                       # Per bank write bursts
system.mem_ctrls0.perBankWrBursts::8             3086                       # Per bank write bursts
system.mem_ctrls0.perBankWrBursts::9             7075                       # Per bank write bursts
system.mem_ctrls0.perBankWrBursts::10           10168                       # Per bank write bursts
system.mem_ctrls0.perBankWrBursts::11            7718                       # Per bank write bursts
system.mem_ctrls0.perBankWrBursts::12            8522                       # Per bank write bursts
system.mem_ctrls0.perBankWrBursts::13            8232                       # Per bank write bursts
system.mem_ctrls0.perBankWrBursts::14            6253                       # Per bank write bursts
system.mem_ctrls0.perBankWrBursts::15            8637                       # Per bank write bursts
system.mem_ctrls0.numRdRetry                        0                       # Number of times read queue was full causing retry
system.mem_ctrls0.numWrRetry                        0                       # Number of times write queue was full causing retry
system.mem_ctrls0.totGap                 1418084832362                       # Total gap between requests
system.mem_ctrls0.readPktSize::0                    0                       # Read request sizes (log2)
system.mem_ctrls0.readPktSize::1                    0                       # Read request sizes (log2)
system.mem_ctrls0.readPktSize::2                    0                       # Read request sizes (log2)
system.mem_ctrls0.readPktSize::3                    0                       # Read request sizes (log2)
system.mem_ctrls0.readPktSize::4                    0                       # Read request sizes (log2)
system.mem_ctrls0.readPktSize::5                    0                       # Read request sizes (log2)
system.mem_ctrls0.readPktSize::6              1053283                       # Read request sizes (log2)
system.mem_ctrls0.writePktSize::0                   0                       # Write request sizes (log2)
system.mem_ctrls0.writePktSize::1                   0                       # Write request sizes (log2)
system.mem_ctrls0.writePktSize::2                   0                       # Write request sizes (log2)
system.mem_ctrls0.writePktSize::3                   0                       # Write request sizes (log2)
system.mem_ctrls0.writePktSize::4                   0                       # Write request sizes (log2)
system.mem_ctrls0.writePktSize::5                   0                       # Write request sizes (log2)
system.mem_ctrls0.writePktSize::6              106682                       # Write request sizes (log2)
system.mem_ctrls0.rdQLenPdf::0                1006975                       # What read queue length does an incoming req see
system.mem_ctrls0.rdQLenPdf::1                  35859                       # What read queue length does an incoming req see
system.mem_ctrls0.rdQLenPdf::2                   2248                       # What read queue length does an incoming req see
system.mem_ctrls0.rdQLenPdf::3                    165                       # What read queue length does an incoming req see
system.mem_ctrls0.rdQLenPdf::4                      0                       # What read queue length does an incoming req see
system.mem_ctrls0.rdQLenPdf::5                      0                       # What read queue length does an incoming req see
system.mem_ctrls0.rdQLenPdf::6                      0                       # What read queue length does an incoming req see
system.mem_ctrls0.rdQLenPdf::7                      0                       # What read queue length does an incoming req see
system.mem_ctrls0.rdQLenPdf::8                      0                       # What read queue length does an incoming req see
system.mem_ctrls0.rdQLenPdf::9                      0                       # What read queue length does an incoming req see
system.mem_ctrls0.rdQLenPdf::10                     0                       # What read queue length does an incoming req see
system.mem_ctrls0.rdQLenPdf::11                     0                       # What read queue length does an incoming req see
system.mem_ctrls0.rdQLenPdf::12                     0                       # What read queue length does an incoming req see
system.mem_ctrls0.rdQLenPdf::13                     0                       # What read queue length does an incoming req see
system.mem_ctrls0.rdQLenPdf::14                     0                       # What read queue length does an incoming req see
system.mem_ctrls0.rdQLenPdf::15                     0                       # What read queue length does an incoming req see
system.mem_ctrls0.rdQLenPdf::16                     0                       # What read queue length does an incoming req see
system.mem_ctrls0.rdQLenPdf::17                     0                       # What read queue length does an incoming req see
system.mem_ctrls0.rdQLenPdf::18                     0                       # What read queue length does an incoming req see
system.mem_ctrls0.rdQLenPdf::19                     0                       # What read queue length does an incoming req see
system.mem_ctrls0.rdQLenPdf::20                     0                       # What read queue length does an incoming req see
system.mem_ctrls0.rdQLenPdf::21                     0                       # What read queue length does an incoming req see
system.mem_ctrls0.rdQLenPdf::22                     0                       # What read queue length does an incoming req see
system.mem_ctrls0.rdQLenPdf::23                     0                       # What read queue length does an incoming req see
system.mem_ctrls0.rdQLenPdf::24                     0                       # What read queue length does an incoming req see
system.mem_ctrls0.rdQLenPdf::25                     0                       # What read queue length does an incoming req see
system.mem_ctrls0.rdQLenPdf::26                     0                       # What read queue length does an incoming req see
system.mem_ctrls0.rdQLenPdf::27                     0                       # What read queue length does an incoming req see
system.mem_ctrls0.rdQLenPdf::28                     0                       # What read queue length does an incoming req see
system.mem_ctrls0.rdQLenPdf::29                     0                       # What read queue length does an incoming req see
system.mem_ctrls0.rdQLenPdf::30                     0                       # What read queue length does an incoming req see
system.mem_ctrls0.rdQLenPdf::31                     0                       # What read queue length does an incoming req see
system.mem_ctrls0.wrQLenPdf::0                      2                       # What write queue length does an incoming req see
system.mem_ctrls0.wrQLenPdf::1                      2                       # What write queue length does an incoming req see
system.mem_ctrls0.wrQLenPdf::2                      2                       # What write queue length does an incoming req see
system.mem_ctrls0.wrQLenPdf::3                      2                       # What write queue length does an incoming req see
system.mem_ctrls0.wrQLenPdf::4                      2                       # What write queue length does an incoming req see
system.mem_ctrls0.wrQLenPdf::5                      2                       # What write queue length does an incoming req see
system.mem_ctrls0.wrQLenPdf::6                      2                       # What write queue length does an incoming req see
system.mem_ctrls0.wrQLenPdf::7                      2                       # What write queue length does an incoming req see
system.mem_ctrls0.wrQLenPdf::8                      2                       # What write queue length does an incoming req see
system.mem_ctrls0.wrQLenPdf::9                      2                       # What write queue length does an incoming req see
system.mem_ctrls0.wrQLenPdf::10                     2                       # What write queue length does an incoming req see
system.mem_ctrls0.wrQLenPdf::11                     2                       # What write queue length does an incoming req see
system.mem_ctrls0.wrQLenPdf::12                     2                       # What write queue length does an incoming req see
system.mem_ctrls0.wrQLenPdf::13                     2                       # What write queue length does an incoming req see
system.mem_ctrls0.wrQLenPdf::14                     2                       # What write queue length does an incoming req see
system.mem_ctrls0.wrQLenPdf::15                  4919                       # What write queue length does an incoming req see
system.mem_ctrls0.wrQLenPdf::16                  4972                       # What write queue length does an incoming req see
system.mem_ctrls0.wrQLenPdf::17                  6027                       # What write queue length does an incoming req see
system.mem_ctrls0.wrQLenPdf::18                  6043                       # What write queue length does an incoming req see
system.mem_ctrls0.wrQLenPdf::19                  6045                       # What write queue length does an incoming req see
system.mem_ctrls0.wrQLenPdf::20                  6044                       # What write queue length does an incoming req see
system.mem_ctrls0.wrQLenPdf::21                  6043                       # What write queue length does an incoming req see
system.mem_ctrls0.wrQLenPdf::22                  6041                       # What write queue length does an incoming req see
system.mem_ctrls0.wrQLenPdf::23                  6045                       # What write queue length does an incoming req see
system.mem_ctrls0.wrQLenPdf::24                  6048                       # What write queue length does an incoming req see
system.mem_ctrls0.wrQLenPdf::25                  6046                       # What write queue length does an incoming req see
system.mem_ctrls0.wrQLenPdf::26                  6044                       # What write queue length does an incoming req see
system.mem_ctrls0.wrQLenPdf::27                  6044                       # What write queue length does an incoming req see
system.mem_ctrls0.wrQLenPdf::28                  6044                       # What write queue length does an incoming req see
system.mem_ctrls0.wrQLenPdf::29                  6047                       # What write queue length does an incoming req see
system.mem_ctrls0.wrQLenPdf::30                  6056                       # What write queue length does an incoming req see
system.mem_ctrls0.wrQLenPdf::31                  6041                       # What write queue length does an incoming req see
system.mem_ctrls0.wrQLenPdf::32                  6041                       # What write queue length does an incoming req see
system.mem_ctrls0.wrQLenPdf::33                     4                       # What write queue length does an incoming req see
system.mem_ctrls0.wrQLenPdf::34                     0                       # What write queue length does an incoming req see
system.mem_ctrls0.wrQLenPdf::35                     0                       # What write queue length does an incoming req see
system.mem_ctrls0.wrQLenPdf::36                     0                       # What write queue length does an incoming req see
system.mem_ctrls0.wrQLenPdf::37                     0                       # What write queue length does an incoming req see
system.mem_ctrls0.wrQLenPdf::38                     0                       # What write queue length does an incoming req see
system.mem_ctrls0.wrQLenPdf::39                     0                       # What write queue length does an incoming req see
system.mem_ctrls0.wrQLenPdf::40                     0                       # What write queue length does an incoming req see
system.mem_ctrls0.wrQLenPdf::41                     0                       # What write queue length does an incoming req see
system.mem_ctrls0.wrQLenPdf::42                     0                       # What write queue length does an incoming req see
system.mem_ctrls0.wrQLenPdf::43                     0                       # What write queue length does an incoming req see
system.mem_ctrls0.wrQLenPdf::44                     0                       # What write queue length does an incoming req see
system.mem_ctrls0.wrQLenPdf::45                     0                       # What write queue length does an incoming req see
system.mem_ctrls0.wrQLenPdf::46                     0                       # What write queue length does an incoming req see
system.mem_ctrls0.wrQLenPdf::47                     0                       # What write queue length does an incoming req see
system.mem_ctrls0.wrQLenPdf::48                     0                       # What write queue length does an incoming req see
system.mem_ctrls0.wrQLenPdf::49                     0                       # What write queue length does an incoming req see
system.mem_ctrls0.wrQLenPdf::50                     0                       # What write queue length does an incoming req see
system.mem_ctrls0.wrQLenPdf::51                     0                       # What write queue length does an incoming req see
system.mem_ctrls0.wrQLenPdf::52                     0                       # What write queue length does an incoming req see
system.mem_ctrls0.wrQLenPdf::53                     0                       # What write queue length does an incoming req see
system.mem_ctrls0.wrQLenPdf::54                     0                       # What write queue length does an incoming req see
system.mem_ctrls0.wrQLenPdf::55                     0                       # What write queue length does an incoming req see
system.mem_ctrls0.wrQLenPdf::56                     0                       # What write queue length does an incoming req see
system.mem_ctrls0.wrQLenPdf::57                     0                       # What write queue length does an incoming req see
system.mem_ctrls0.wrQLenPdf::58                     0                       # What write queue length does an incoming req see
system.mem_ctrls0.wrQLenPdf::59                     0                       # What write queue length does an incoming req see
system.mem_ctrls0.wrQLenPdf::60                     0                       # What write queue length does an incoming req see
system.mem_ctrls0.wrQLenPdf::61                     0                       # What write queue length does an incoming req see
system.mem_ctrls0.wrQLenPdf::62                     0                       # What write queue length does an incoming req see
system.mem_ctrls0.wrQLenPdf::63                     0                       # What write queue length does an incoming req see
system.mem_ctrls0.bytesPerActivate::samples       501236                       # Bytes accessed per row activation
system.mem_ctrls0.bytesPerActivate::mean   147.073363                       # Bytes accessed per row activation
system.mem_ctrls0.bytesPerActivate::gmean   108.563372                       # Bytes accessed per row activation
system.mem_ctrls0.bytesPerActivate::stdev   149.318414                       # Bytes accessed per row activation
system.mem_ctrls0.bytesPerActivate::0-127       283764     56.61%     56.61% # Bytes accessed per row activation
system.mem_ctrls0.bytesPerActivate::128-255       126213     25.18%     81.79% # Bytes accessed per row activation
system.mem_ctrls0.bytesPerActivate::256-383        47813      9.54%     91.33% # Bytes accessed per row activation
system.mem_ctrls0.bytesPerActivate::384-511        23669      4.72%     96.05% # Bytes accessed per row activation
system.mem_ctrls0.bytesPerActivate::512-639        10538      2.10%     98.16% # Bytes accessed per row activation
system.mem_ctrls0.bytesPerActivate::640-767         2809      0.56%     98.72% # Bytes accessed per row activation
system.mem_ctrls0.bytesPerActivate::768-895         1541      0.31%     99.02% # Bytes accessed per row activation
system.mem_ctrls0.bytesPerActivate::896-1023         1257      0.25%     99.28% # Bytes accessed per row activation
system.mem_ctrls0.bytesPerActivate::1024-1151         3632      0.72%    100.00% # Bytes accessed per row activation
system.mem_ctrls0.bytesPerActivate::total       501236                       # Bytes accessed per row activation
system.mem_ctrls0.rdPerTurnAround::samples         6042                       # Reads before turning the bus around for writes
system.mem_ctrls0.rdPerTurnAround::mean    172.987752                       # Reads before turning the bus around for writes
system.mem_ctrls0.rdPerTurnAround::gmean   138.027086                       # Reads before turning the bus around for writes
system.mem_ctrls0.rdPerTurnAround::stdev   389.279000                       # Reads before turning the bus around for writes
system.mem_ctrls0.rdPerTurnAround::0-1023         6039     99.95%     99.95% # Reads before turning the bus around for writes
system.mem_ctrls0.rdPerTurnAround::1024-2047            2      0.03%     99.98% # Reads before turning the bus around for writes
system.mem_ctrls0.rdPerTurnAround::28672-29695            1      0.02%    100.00% # Reads before turning the bus around for writes
system.mem_ctrls0.rdPerTurnAround::total         6042                       # Reads before turning the bus around for writes
system.mem_ctrls0.wrPerTurnAround::samples         6042                       # Writes before turning the bus around for reads
system.mem_ctrls0.wrPerTurnAround::mean     17.643827                       # Writes before turning the bus around for reads
system.mem_ctrls0.wrPerTurnAround::gmean    17.626058                       # Writes before turning the bus around for reads
system.mem_ctrls0.wrPerTurnAround::stdev     0.772983                       # Writes before turning the bus around for reads
system.mem_ctrls0.wrPerTurnAround::16            1069     17.69%     17.69% # Writes before turning the bus around for reads
system.mem_ctrls0.wrPerTurnAround::17              54      0.89%     18.59% # Writes before turning the bus around for reads
system.mem_ctrls0.wrPerTurnAround::18            4881     80.78%     99.37% # Writes before turning the bus around for reads
system.mem_ctrls0.wrPerTurnAround::19              37      0.61%     99.98% # Writes before turning the bus around for reads
system.mem_ctrls0.wrPerTurnAround::21               1      0.02%    100.00% # Writes before turning the bus around for reads
system.mem_ctrls0.wrPerTurnAround::total         6042                       # Writes before turning the bus around for reads
system.mem_ctrls0.totQLat                 38126854620                       # Total ticks spent queuing
system.mem_ctrls0.totMemAccLat            57725235870                       # Total ticks spent from burst creation until serviced by the DRAM
system.mem_ctrls0.totBusLat                5226235000                       # Total ticks spent in databus transfers
system.mem_ctrls0.avgQLat                    36476.41                       # Average queueing delay per DRAM burst
system.mem_ctrls0.avgBusLat                   5000.00                       # Average bus latency per DRAM burst
system.mem_ctrls0.avgMemAccLat               55226.41                       # Average memory access latency per DRAM burst
system.mem_ctrls0.avgRdBW                       47.17                       # Average DRAM read bandwidth in MiByte/s
system.mem_ctrls0.avgWrBW                        4.81                       # Average achieved write bandwidth in MiByte/s
system.mem_ctrls0.avgRdBWSys                    47.54                       # Average system read bandwidth in MiByte/s
system.mem_ctrls0.avgWrBWSys                     4.81                       # Average system write bandwidth in MiByte/s
system.mem_ctrls0.peakBW                     12800.00                       # Theoretical peak bandwidth in MiByte/s
system.mem_ctrls0.busUtil                        0.41                       # Data bus utilization in percentage
system.mem_ctrls0.busUtilRead                    0.37                       # Data bus utilization in percentage for reads
system.mem_ctrls0.busUtilWrite                   0.04                       # Data bus utilization in percentage for writes
system.mem_ctrls0.avgRdQLen                      1.01                       # Average read queue length when enqueuing
system.mem_ctrls0.avgWrQLen                     24.44                       # Average write queue length when enqueuing
system.mem_ctrls0.readRowHits                  596384                       # Number of row buffer hits during reads
system.mem_ctrls0.writeRowHits                  54231                       # Number of row buffer hits during writes
system.mem_ctrls0.readRowHitRate                57.06                       # Row buffer hit rate for reads
system.mem_ctrls0.writeRowHitRate               50.86                       # Row buffer hit rate for writes
system.mem_ctrls0.avgGap                   1222523.81                       # Average gap between requests
system.mem_ctrls0.pageHitRate                   56.48                       # Row buffer hit rate, read and write combined
system.mem_ctrls0_0.actEnergy              1930748820                       # Energy for activate commands per rank (pJ)
system.mem_ctrls0_0.preEnergy              1026217335                       # Energy for precharge commands per rank (pJ)
system.mem_ctrls0_0.readEnergy             3929984520                       # Energy for read commands per rank (pJ)
system.mem_ctrls0_0.writeEnergy             244885860                       # Energy for write commands per rank (pJ)
system.mem_ctrls0_0.refreshEnergy        89731908240.000015                       # Energy for refresh commands per rank (pJ)
system.mem_ctrls0_0.actBackEnergy         27995009640                       # Energy for active background per rank (pJ)
system.mem_ctrls0_0.preBackEnergy          3666972000                       # Energy for precharge background per rank (pJ)
system.mem_ctrls0_0.actPowerDownEnergy   287937569670                       # Energy for active power-down per rank (pJ)
system.mem_ctrls0_0.prePowerDownEnergy   112035783360                       # Energy for precharge power-down per rank (pJ)
system.mem_ctrls0_0.selfRefreshEnergy    112617179850                       # Energy for self refresh per rank (pJ)
system.mem_ctrls0_0.totalEnergy          641150021505                       # Total energy per rank (pJ)
system.mem_ctrls0_0.averagePower           452.120994                       # Core power per rank (mW)
system.mem_ctrls0_0.totalIdleTime        1347070755147                       # Total Idle time Per DRAM Rank
system.mem_ctrls0_0.memoryStateTime::IDLE   5945446415                       # Time in different power states
system.mem_ctrls0_0.memoryStateTime::REF  38079442000                       # Time in different power states
system.mem_ctrls0_0.memoryStateTime::SREF 423874862265                       # Time in different power states
system.mem_ctrls0_0.memoryStateTime::PRE_PDN 291759566339                       # Time in different power states
system.mem_ctrls0_0.memoryStateTime::ACT  26992710220                       # Time in different power states
system.mem_ctrls0_0.memoryStateTime::ACT_PDN 631441861026                       # Time in different power states
system.mem_ctrls0_1.actEnergy              1648076220                       # Energy for activate commands per rank (pJ)
system.mem_ctrls0_1.preEnergy               875973285                       # Energy for precharge commands per rank (pJ)
system.mem_ctrls0_1.readEnergy             3533079060                       # Energy for read commands per rank (pJ)
system.mem_ctrls0_1.writeEnergy             311587020                       # Energy for write commands per rank (pJ)
system.mem_ctrls0_1.refreshEnergy        83402345520.000015                       # Energy for refresh commands per rank (pJ)
system.mem_ctrls0_1.actBackEnergy         27104645130                       # Energy for active background per rank (pJ)
system.mem_ctrls0_1.preBackEnergy          3482395200                       # Energy for precharge background per rank (pJ)
system.mem_ctrls0_1.actPowerDownEnergy   261864987630                       # Energy for active power-down per rank (pJ)
system.mem_ctrls0_1.prePowerDownEnergy   104937008160                       # Energy for precharge power-down per rank (pJ)
system.mem_ctrls0_1.selfRefreshEnergy    131200814700                       # Energy for self refresh per rank (pJ)
system.mem_ctrls0_1.totalEnergy          618393422265                       # Total energy per rank (pJ)
system.mem_ctrls0_1.averagePower           436.073677                       # Core power per rank (mW)
system.mem_ctrls0_1.totalIdleTime        1349510339172                       # Total Idle time Per DRAM Rank
system.mem_ctrls0_1.memoryStateTime::IDLE   5743766335                       # Time in different power states
system.mem_ctrls0_1.memoryStateTime::REF  35399628000                       # Time in different power states
system.mem_ctrls0_1.memoryStateTime::SREF 501974034407                       # Time in different power states
system.mem_ctrls0_1.memoryStateTime::PRE_PDN 273273641051                       # Time in different power states
system.mem_ctrls0_1.memoryStateTime::ACT  27437359900                       # Time in different power states
system.mem_ctrls0_1.memoryStateTime::ACT_PDN 574265458572                       # Time in different power states
system.mem_ctrls1.pwrStateResidencyTicks::UNDEFINED 734370534442251                       # Cumulative time (in ticks) in various power states
system.mem_ctrls1.bytes_read::cpu.inst             64                       # Number of bytes read from this memory
system.mem_ctrls1.bytes_read::cpu.data            192                       # Number of bytes read from this memory
system.mem_ctrls1.bytes_read::switch_cpus.inst       197184                       # Number of bytes read from this memory
system.mem_ctrls1.bytes_read::switch_cpus.data     52340928                       # Number of bytes read from this memory
system.mem_ctrls1.bytes_read::switch_cpus_1.inst        47872                       # Number of bytes read from this memory
system.mem_ctrls1.bytes_read::switch_cpus_1.data     14630848                       # Number of bytes read from this memory
system.mem_ctrls1.bytes_read::total          67217088                       # Number of bytes read from this memory
system.mem_ctrls1.bytes_inst_read::cpu.inst           64                       # Number of instructions bytes read from this memory
system.mem_ctrls1.bytes_inst_read::switch_cpus.inst       197184                       # Number of instructions bytes read from this memory
system.mem_ctrls1.bytes_inst_read::switch_cpus_1.inst        47872                       # Number of instructions bytes read from this memory
system.mem_ctrls1.bytes_inst_read::total       245120                       # Number of instructions bytes read from this memory
system.mem_ctrls1.bytes_written::writebacks      6791872                       # Number of bytes written to this memory
system.mem_ctrls1.bytes_written::total        6791872                       # Number of bytes written to this memory
system.mem_ctrls1.num_reads::cpu.inst               1                       # Number of read requests responded to by this memory
system.mem_ctrls1.num_reads::cpu.data               3                       # Number of read requests responded to by this memory
system.mem_ctrls1.num_reads::switch_cpus.inst         3081                       # Number of read requests responded to by this memory
system.mem_ctrls1.num_reads::switch_cpus.data       817827                       # Number of read requests responded to by this memory
system.mem_ctrls1.num_reads::switch_cpus_1.inst          748                       # Number of read requests responded to by this memory
system.mem_ctrls1.num_reads::switch_cpus_1.data       228607                       # Number of read requests responded to by this memory
system.mem_ctrls1.num_reads::total            1050267                       # Number of read requests responded to by this memory
system.mem_ctrls1.num_writes::writebacks       106123                       # Number of write requests responded to by this memory
system.mem_ctrls1.num_writes::total            106123                       # Number of write requests responded to by this memory
system.mem_ctrls1.bw_read::cpu.inst                45                       # Total read bandwidth from this memory (bytes/s)
system.mem_ctrls1.bw_read::cpu.data               135                       # Total read bandwidth from this memory (bytes/s)
system.mem_ctrls1.bw_read::switch_cpus.inst       139049                       # Total read bandwidth from this memory (bytes/s)
system.mem_ctrls1.bw_read::switch_cpus.data     36909353                       # Total read bandwidth from this memory (bytes/s)
system.mem_ctrls1.bw_read::switch_cpus_1.inst        33758                       # Total read bandwidth from this memory (bytes/s)
system.mem_ctrls1.bw_read::switch_cpus_1.data     10317263                       # Total read bandwidth from this memory (bytes/s)
system.mem_ctrls1.bw_read::total             47399603                       # Total read bandwidth from this memory (bytes/s)
system.mem_ctrls1.bw_inst_read::cpu.inst           45                       # Instruction read bandwidth from this memory (bytes/s)
system.mem_ctrls1.bw_inst_read::switch_cpus.inst       139049                       # Instruction read bandwidth from this memory (bytes/s)
system.mem_ctrls1.bw_inst_read::switch_cpus_1.inst        33758                       # Instruction read bandwidth from this memory (bytes/s)
system.mem_ctrls1.bw_inst_read::total          172852                       # Instruction read bandwidth from this memory (bytes/s)
system.mem_ctrls1.bw_write::writebacks        4789437                       # Write bandwidth from this memory (bytes/s)
system.mem_ctrls1.bw_write::total             4789437                       # Write bandwidth from this memory (bytes/s)
system.mem_ctrls1.bw_total::writebacks        4789437                       # Total bandwidth to/from this memory (bytes/s)
system.mem_ctrls1.bw_total::cpu.inst               45                       # Total bandwidth to/from this memory (bytes/s)
system.mem_ctrls1.bw_total::cpu.data              135                       # Total bandwidth to/from this memory (bytes/s)
system.mem_ctrls1.bw_total::switch_cpus.inst       139049                       # Total bandwidth to/from this memory (bytes/s)
system.mem_ctrls1.bw_total::switch_cpus.data     36909353                       # Total bandwidth to/from this memory (bytes/s)
system.mem_ctrls1.bw_total::switch_cpus_1.inst        33758                       # Total bandwidth to/from this memory (bytes/s)
system.mem_ctrls1.bw_total::switch_cpus_1.data     10317263                       # Total bandwidth to/from this memory (bytes/s)
system.mem_ctrls1.bw_total::total            52189041                       # Total bandwidth to/from this memory (bytes/s)
system.mem_ctrls1.readReqs                    1050267                       # Number of read requests accepted
system.mem_ctrls1.writeReqs                    106123                       # Number of write requests accepted
system.mem_ctrls1.readBursts                  1050267                       # Number of DRAM read bursts, including those serviced by the write queue
system.mem_ctrls1.writeBursts                  106123                       # Number of DRAM write bursts, including those merged in the write queue
system.mem_ctrls1.bytesReadDRAM              66700416                       # Total number of bytes read from DRAM
system.mem_ctrls1.bytesReadWrQ                 516672                       # Total number of bytes read from write queue
system.mem_ctrls1.bytesWritten                6785472                       # Total number of bytes written to DRAM
system.mem_ctrls1.bytesReadSys               67217088                       # Total read bytes from the system interface side
system.mem_ctrls1.bytesWrittenSys             6791872                       # Total written bytes from the system interface side
system.mem_ctrls1.servicedByWrQ                  8073                       # Number of DRAM read bursts serviced by the write queue
system.mem_ctrls1.mergedWrBursts                   77                       # Number of DRAM write bursts merged with an existing one
system.mem_ctrls1.neitherReadNorWriteReqs            0                       # Number of requests that are neither read nor write
system.mem_ctrls1.perBankRdBursts::0            82435                       # Per bank write bursts
system.mem_ctrls1.perBankRdBursts::1            90696                       # Per bank write bursts
system.mem_ctrls1.perBankRdBursts::2            80908                       # Per bank write bursts
system.mem_ctrls1.perBankRdBursts::3            56065                       # Per bank write bursts
system.mem_ctrls1.perBankRdBursts::4            63018                       # Per bank write bursts
system.mem_ctrls1.perBankRdBursts::5            50082                       # Per bank write bursts
system.mem_ctrls1.perBankRdBursts::6            44843                       # Per bank write bursts
system.mem_ctrls1.perBankRdBursts::7            83073                       # Per bank write bursts
system.mem_ctrls1.perBankRdBursts::8            74624                       # Per bank write bursts
system.mem_ctrls1.perBankRdBursts::9            74615                       # Per bank write bursts
system.mem_ctrls1.perBankRdBursts::10           63871                       # Per bank write bursts
system.mem_ctrls1.perBankRdBursts::11           45964                       # Per bank write bursts
system.mem_ctrls1.perBankRdBursts::12           56458                       # Per bank write bursts
system.mem_ctrls1.perBankRdBursts::13           55425                       # Per bank write bursts
system.mem_ctrls1.perBankRdBursts::14           43074                       # Per bank write bursts
system.mem_ctrls1.perBankRdBursts::15           77043                       # Per bank write bursts
system.mem_ctrls1.perBankWrBursts::0             9147                       # Per bank write bursts
system.mem_ctrls1.perBankWrBursts::1             9392                       # Per bank write bursts
system.mem_ctrls1.perBankWrBursts::2             9294                       # Per bank write bursts
system.mem_ctrls1.perBankWrBursts::3             5650                       # Per bank write bursts
system.mem_ctrls1.perBankWrBursts::4             4156                       # Per bank write bursts
system.mem_ctrls1.perBankWrBursts::5             3900                       # Per bank write bursts
system.mem_ctrls1.perBankWrBursts::6             1774                       # Per bank write bursts
system.mem_ctrls1.perBankWrBursts::7             2372                       # Per bank write bursts
system.mem_ctrls1.perBankWrBursts::8             2972                       # Per bank write bursts
system.mem_ctrls1.perBankWrBursts::9             7661                       # Per bank write bursts
system.mem_ctrls1.perBankWrBursts::10           10573                       # Per bank write bursts
system.mem_ctrls1.perBankWrBursts::11            7515                       # Per bank write bursts
system.mem_ctrls1.perBankWrBursts::12            8344                       # Per bank write bursts
system.mem_ctrls1.perBankWrBursts::13            8262                       # Per bank write bursts
system.mem_ctrls1.perBankWrBursts::14            6461                       # Per bank write bursts
system.mem_ctrls1.perBankWrBursts::15            8550                       # Per bank write bursts
system.mem_ctrls1.numRdRetry                        0                       # Number of times read queue was full causing retry
system.mem_ctrls1.numWrRetry                        0                       # Number of times write queue was full causing retry
system.mem_ctrls1.totGap                 1418073435405                       # Total gap between requests
system.mem_ctrls1.readPktSize::0                    0                       # Read request sizes (log2)
system.mem_ctrls1.readPktSize::1                    0                       # Read request sizes (log2)
system.mem_ctrls1.readPktSize::2                    0                       # Read request sizes (log2)
system.mem_ctrls1.readPktSize::3                    0                       # Read request sizes (log2)
system.mem_ctrls1.readPktSize::4                    0                       # Read request sizes (log2)
system.mem_ctrls1.readPktSize::5                    0                       # Read request sizes (log2)
system.mem_ctrls1.readPktSize::6              1050267                       # Read request sizes (log2)
system.mem_ctrls1.writePktSize::0                   0                       # Write request sizes (log2)
system.mem_ctrls1.writePktSize::1                   0                       # Write request sizes (log2)
system.mem_ctrls1.writePktSize::2                   0                       # Write request sizes (log2)
system.mem_ctrls1.writePktSize::3                   0                       # Write request sizes (log2)
system.mem_ctrls1.writePktSize::4                   0                       # Write request sizes (log2)
system.mem_ctrls1.writePktSize::5                   0                       # Write request sizes (log2)
system.mem_ctrls1.writePktSize::6              106123                       # Write request sizes (log2)
system.mem_ctrls1.rdQLenPdf::0                1003728                       # What read queue length does an incoming req see
system.mem_ctrls1.rdQLenPdf::1                  35965                       # What read queue length does an incoming req see
system.mem_ctrls1.rdQLenPdf::2                   2336                       # What read queue length does an incoming req see
system.mem_ctrls1.rdQLenPdf::3                    165                       # What read queue length does an incoming req see
system.mem_ctrls1.rdQLenPdf::4                      0                       # What read queue length does an incoming req see
system.mem_ctrls1.rdQLenPdf::5                      0                       # What read queue length does an incoming req see
system.mem_ctrls1.rdQLenPdf::6                      0                       # What read queue length does an incoming req see
system.mem_ctrls1.rdQLenPdf::7                      0                       # What read queue length does an incoming req see
system.mem_ctrls1.rdQLenPdf::8                      0                       # What read queue length does an incoming req see
system.mem_ctrls1.rdQLenPdf::9                      0                       # What read queue length does an incoming req see
system.mem_ctrls1.rdQLenPdf::10                     0                       # What read queue length does an incoming req see
system.mem_ctrls1.rdQLenPdf::11                     0                       # What read queue length does an incoming req see
system.mem_ctrls1.rdQLenPdf::12                     0                       # What read queue length does an incoming req see
system.mem_ctrls1.rdQLenPdf::13                     0                       # What read queue length does an incoming req see
system.mem_ctrls1.rdQLenPdf::14                     0                       # What read queue length does an incoming req see
system.mem_ctrls1.rdQLenPdf::15                     0                       # What read queue length does an incoming req see
system.mem_ctrls1.rdQLenPdf::16                     0                       # What read queue length does an incoming req see
system.mem_ctrls1.rdQLenPdf::17                     0                       # What read queue length does an incoming req see
system.mem_ctrls1.rdQLenPdf::18                     0                       # What read queue length does an incoming req see
system.mem_ctrls1.rdQLenPdf::19                     0                       # What read queue length does an incoming req see
system.mem_ctrls1.rdQLenPdf::20                     0                       # What read queue length does an incoming req see
system.mem_ctrls1.rdQLenPdf::21                     0                       # What read queue length does an incoming req see
system.mem_ctrls1.rdQLenPdf::22                     0                       # What read queue length does an incoming req see
system.mem_ctrls1.rdQLenPdf::23                     0                       # What read queue length does an incoming req see
system.mem_ctrls1.rdQLenPdf::24                     0                       # What read queue length does an incoming req see
system.mem_ctrls1.rdQLenPdf::25                     0                       # What read queue length does an incoming req see
system.mem_ctrls1.rdQLenPdf::26                     0                       # What read queue length does an incoming req see
system.mem_ctrls1.rdQLenPdf::27                     0                       # What read queue length does an incoming req see
system.mem_ctrls1.rdQLenPdf::28                     0                       # What read queue length does an incoming req see
system.mem_ctrls1.rdQLenPdf::29                     0                       # What read queue length does an incoming req see
system.mem_ctrls1.rdQLenPdf::30                     0                       # What read queue length does an incoming req see
system.mem_ctrls1.rdQLenPdf::31                     0                       # What read queue length does an incoming req see
system.mem_ctrls1.wrQLenPdf::0                      2                       # What write queue length does an incoming req see
system.mem_ctrls1.wrQLenPdf::1                      2                       # What write queue length does an incoming req see
system.mem_ctrls1.wrQLenPdf::2                      2                       # What write queue length does an incoming req see
system.mem_ctrls1.wrQLenPdf::3                      2                       # What write queue length does an incoming req see
system.mem_ctrls1.wrQLenPdf::4                      2                       # What write queue length does an incoming req see
system.mem_ctrls1.wrQLenPdf::5                      2                       # What write queue length does an incoming req see
system.mem_ctrls1.wrQLenPdf::6                      2                       # What write queue length does an incoming req see
system.mem_ctrls1.wrQLenPdf::7                      2                       # What write queue length does an incoming req see
system.mem_ctrls1.wrQLenPdf::8                      2                       # What write queue length does an incoming req see
system.mem_ctrls1.wrQLenPdf::9                      2                       # What write queue length does an incoming req see
system.mem_ctrls1.wrQLenPdf::10                     2                       # What write queue length does an incoming req see
system.mem_ctrls1.wrQLenPdf::11                     2                       # What write queue length does an incoming req see
system.mem_ctrls1.wrQLenPdf::12                     2                       # What write queue length does an incoming req see
system.mem_ctrls1.wrQLenPdf::13                     2                       # What write queue length does an incoming req see
system.mem_ctrls1.wrQLenPdf::14                     2                       # What write queue length does an incoming req see
system.mem_ctrls1.wrQLenPdf::15                  4903                       # What write queue length does an incoming req see
system.mem_ctrls1.wrQLenPdf::16                  4970                       # What write queue length does an incoming req see
system.mem_ctrls1.wrQLenPdf::17                  6000                       # What write queue length does an incoming req see
system.mem_ctrls1.wrQLenPdf::18                  6008                       # What write queue length does an incoming req see
system.mem_ctrls1.wrQLenPdf::19                  6011                       # What write queue length does an incoming req see
system.mem_ctrls1.wrQLenPdf::20                  6008                       # What write queue length does an incoming req see
system.mem_ctrls1.wrQLenPdf::21                  6012                       # What write queue length does an incoming req see
system.mem_ctrls1.wrQLenPdf::22                  6008                       # What write queue length does an incoming req see
system.mem_ctrls1.wrQLenPdf::23                  6011                       # What write queue length does an incoming req see
system.mem_ctrls1.wrQLenPdf::24                  6011                       # What write queue length does an incoming req see
system.mem_ctrls1.wrQLenPdf::25                  6013                       # What write queue length does an incoming req see
system.mem_ctrls1.wrQLenPdf::26                  6009                       # What write queue length does an incoming req see
system.mem_ctrls1.wrQLenPdf::27                  6010                       # What write queue length does an incoming req see
system.mem_ctrls1.wrQLenPdf::28                  6007                       # What write queue length does an incoming req see
system.mem_ctrls1.wrQLenPdf::29                  6006                       # What write queue length does an incoming req see
system.mem_ctrls1.wrQLenPdf::30                  6019                       # What write queue length does an incoming req see
system.mem_ctrls1.wrQLenPdf::31                  6005                       # What write queue length does an incoming req see
system.mem_ctrls1.wrQLenPdf::32                  6005                       # What write queue length does an incoming req see
system.mem_ctrls1.wrQLenPdf::33                     0                       # What write queue length does an incoming req see
system.mem_ctrls1.wrQLenPdf::34                     0                       # What write queue length does an incoming req see
system.mem_ctrls1.wrQLenPdf::35                     0                       # What write queue length does an incoming req see
system.mem_ctrls1.wrQLenPdf::36                     0                       # What write queue length does an incoming req see
system.mem_ctrls1.wrQLenPdf::37                     0                       # What write queue length does an incoming req see
system.mem_ctrls1.wrQLenPdf::38                     0                       # What write queue length does an incoming req see
system.mem_ctrls1.wrQLenPdf::39                     0                       # What write queue length does an incoming req see
system.mem_ctrls1.wrQLenPdf::40                     0                       # What write queue length does an incoming req see
system.mem_ctrls1.wrQLenPdf::41                     0                       # What write queue length does an incoming req see
system.mem_ctrls1.wrQLenPdf::42                     0                       # What write queue length does an incoming req see
system.mem_ctrls1.wrQLenPdf::43                     0                       # What write queue length does an incoming req see
system.mem_ctrls1.wrQLenPdf::44                     0                       # What write queue length does an incoming req see
system.mem_ctrls1.wrQLenPdf::45                     0                       # What write queue length does an incoming req see
system.mem_ctrls1.wrQLenPdf::46                     0                       # What write queue length does an incoming req see
system.mem_ctrls1.wrQLenPdf::47                     0                       # What write queue length does an incoming req see
system.mem_ctrls1.wrQLenPdf::48                     0                       # What write queue length does an incoming req see
system.mem_ctrls1.wrQLenPdf::49                     0                       # What write queue length does an incoming req see
system.mem_ctrls1.wrQLenPdf::50                     0                       # What write queue length does an incoming req see
system.mem_ctrls1.wrQLenPdf::51                     0                       # What write queue length does an incoming req see
system.mem_ctrls1.wrQLenPdf::52                     0                       # What write queue length does an incoming req see
system.mem_ctrls1.wrQLenPdf::53                     0                       # What write queue length does an incoming req see
system.mem_ctrls1.wrQLenPdf::54                     0                       # What write queue length does an incoming req see
system.mem_ctrls1.wrQLenPdf::55                     0                       # What write queue length does an incoming req see
system.mem_ctrls1.wrQLenPdf::56                     0                       # What write queue length does an incoming req see
system.mem_ctrls1.wrQLenPdf::57                     0                       # What write queue length does an incoming req see
system.mem_ctrls1.wrQLenPdf::58                     0                       # What write queue length does an incoming req see
system.mem_ctrls1.wrQLenPdf::59                     0                       # What write queue length does an incoming req see
system.mem_ctrls1.wrQLenPdf::60                     0                       # What write queue length does an incoming req see
system.mem_ctrls1.wrQLenPdf::61                     0                       # What write queue length does an incoming req see
system.mem_ctrls1.wrQLenPdf::62                     0                       # What write queue length does an incoming req see
system.mem_ctrls1.wrQLenPdf::63                     0                       # What write queue length does an incoming req see
system.mem_ctrls1.bytesPerActivate::samples       498955                       # Bytes accessed per row activation
system.mem_ctrls1.bytesPerActivate::mean   147.279590                       # Bytes accessed per row activation
system.mem_ctrls1.bytesPerActivate::gmean   108.681549                       # Bytes accessed per row activation
system.mem_ctrls1.bytesPerActivate::stdev   149.584857                       # Bytes accessed per row activation
system.mem_ctrls1.bytesPerActivate::0-127       282063     56.53%     56.53% # Bytes accessed per row activation
system.mem_ctrls1.bytesPerActivate::128-255       125905     25.23%     81.76% # Bytes accessed per row activation
system.mem_ctrls1.bytesPerActivate::256-383        47680      9.56%     91.32% # Bytes accessed per row activation
system.mem_ctrls1.bytesPerActivate::384-511        23602      4.73%     96.05% # Bytes accessed per row activation
system.mem_ctrls1.bytesPerActivate::512-639        10463      2.10%     98.15% # Bytes accessed per row activation
system.mem_ctrls1.bytesPerActivate::640-767         2747      0.55%     98.70% # Bytes accessed per row activation
system.mem_ctrls1.bytesPerActivate::768-895         1594      0.32%     99.02% # Bytes accessed per row activation
system.mem_ctrls1.bytesPerActivate::896-1023         1274      0.26%     99.27% # Bytes accessed per row activation
system.mem_ctrls1.bytesPerActivate::1024-1151         3627      0.73%    100.00% # Bytes accessed per row activation
system.mem_ctrls1.bytesPerActivate::total       498955                       # Bytes accessed per row activation
system.mem_ctrls1.rdPerTurnAround::samples         6006                       # Reads before turning the bus around for writes
system.mem_ctrls1.rdPerTurnAround::mean    173.511988                       # Reads before turning the bus around for writes
system.mem_ctrls1.rdPerTurnAround::gmean   138.719563                       # Reads before turning the bus around for writes
system.mem_ctrls1.rdPerTurnAround::stdev   390.791222                       # Reads before turning the bus around for writes
system.mem_ctrls1.rdPerTurnAround::0-1023         6003     99.95%     99.95% # Reads before turning the bus around for writes
system.mem_ctrls1.rdPerTurnAround::1024-2047            2      0.03%     99.98% # Reads before turning the bus around for writes
system.mem_ctrls1.rdPerTurnAround::28672-29695            1      0.02%    100.00% # Reads before turning the bus around for writes
system.mem_ctrls1.rdPerTurnAround::total         6006                       # Reads before turning the bus around for writes
system.mem_ctrls1.wrPerTurnAround::samples         6006                       # Writes before turning the bus around for reads
system.mem_ctrls1.wrPerTurnAround::mean     17.652847                       # Writes before turning the bus around for reads
system.mem_ctrls1.wrPerTurnAround::gmean    17.634996                       # Writes before turning the bus around for reads
system.mem_ctrls1.wrPerTurnAround::stdev     0.777621                       # Writes before turning the bus around for reads
system.mem_ctrls1.wrPerTurnAround::16            1038     17.28%     17.28% # Writes before turning the bus around for reads
system.mem_ctrls1.wrPerTurnAround::17              66      1.10%     18.38% # Writes before turning the bus around for reads
system.mem_ctrls1.wrPerTurnAround::18            4856     80.85%     99.23% # Writes before turning the bus around for reads
system.mem_ctrls1.wrPerTurnAround::19              43      0.72%     99.95% # Writes before turning the bus around for reads
system.mem_ctrls1.wrPerTurnAround::20               1      0.02%     99.97% # Writes before turning the bus around for reads
system.mem_ctrls1.wrPerTurnAround::21               1      0.02%     99.98% # Writes before turning the bus around for reads
system.mem_ctrls1.wrPerTurnAround::27               1      0.02%    100.00% # Writes before turning the bus around for reads
system.mem_ctrls1.wrPerTurnAround::total         6006                       # Writes before turning the bus around for reads
system.mem_ctrls1.totQLat                 37864075637                       # Total ticks spent queuing
system.mem_ctrls1.totMemAccLat            57405213137                       # Total ticks spent from burst creation until serviced by the DRAM
system.mem_ctrls1.totBusLat                5210970000                       # Total ticks spent in databus transfers
system.mem_ctrls1.avgQLat                    36331.12                       # Average queueing delay per DRAM burst
system.mem_ctrls1.avgBusLat                   5000.00                       # Average bus latency per DRAM burst
system.mem_ctrls1.avgMemAccLat               55081.12                       # Average memory access latency per DRAM burst
system.mem_ctrls1.avgRdBW                       47.04                       # Average DRAM read bandwidth in MiByte/s
system.mem_ctrls1.avgWrBW                        4.78                       # Average achieved write bandwidth in MiByte/s
system.mem_ctrls1.avgRdBWSys                    47.40                       # Average system read bandwidth in MiByte/s
system.mem_ctrls1.avgWrBWSys                     4.79                       # Average system write bandwidth in MiByte/s
system.mem_ctrls1.peakBW                     12800.00                       # Theoretical peak bandwidth in MiByte/s
system.mem_ctrls1.busUtil                        0.40                       # Data bus utilization in percentage
system.mem_ctrls1.busUtilRead                    0.37                       # Data bus utilization in percentage for reads
system.mem_ctrls1.busUtilWrite                   0.04                       # Data bus utilization in percentage for writes
system.mem_ctrls1.avgRdQLen                      1.01                       # Average read queue length when enqueuing
system.mem_ctrls1.avgWrQLen                     24.44                       # Average write queue length when enqueuing
system.mem_ctrls1.readRowHits                  595081                       # Number of row buffer hits during reads
system.mem_ctrls1.writeRowHits                  54181                       # Number of row buffer hits during writes
system.mem_ctrls1.readRowHitRate                57.10                       # Row buffer hit rate for reads
system.mem_ctrls1.writeRowHitRate               51.09                       # Row buffer hit rate for writes
system.mem_ctrls1.avgGap                   1226293.41                       # Average gap between requests
system.mem_ctrls1.pageHitRate                   56.54                       # Row buffer hit rate, read and write combined
system.mem_ctrls1_0.actEnergy              1930598880                       # Energy for activate commands per rank (pJ)
system.mem_ctrls1_0.preEnergy              1026137640                       # Energy for precharge commands per rank (pJ)
system.mem_ctrls1_0.readEnergy             3934996800                       # Energy for read commands per rank (pJ)
system.mem_ctrls1_0.writeEnergy             238475700                       # Energy for write commands per rank (pJ)
system.mem_ctrls1_0.refreshEnergy        89832094560.000015                       # Energy for refresh commands per rank (pJ)
system.mem_ctrls1_0.actBackEnergy         27964022730                       # Energy for active background per rank (pJ)
system.mem_ctrls1_0.preBackEnergy          3634823040                       # Energy for precharge background per rank (pJ)
system.mem_ctrls1_0.actPowerDownEnergy   289654736850                       # Energy for active power-down per rank (pJ)
system.mem_ctrls1_0.prePowerDownEnergy   111867406560                       # Energy for precharge power-down per rank (pJ)
system.mem_ctrls1_0.selfRefreshEnergy    111709193325                       # Energy for self refresh per rank (pJ)
system.mem_ctrls1_0.totalEnergy          641826442215                       # Total energy per rank (pJ)
system.mem_ctrls1_0.averagePower           452.597986                       # Core power per rank (mW)
system.mem_ctrls1_0.totalIdleTime        1347182850859                       # Total Idle time Per DRAM Rank
system.mem_ctrls1_0.memoryStateTime::IDLE   5853859003                       # Time in different power states
system.mem_ctrls1_0.memoryStateTime::REF  38120112000                       # Time in different power states
system.mem_ctrls1_0.memoryStateTime::SREF 420698887765                       # Time in different power states
system.mem_ctrls1_0.memoryStateTime::PRE_PDN 291321198220                       # Time in different power states
system.mem_ctrls1_0.memoryStateTime::ACT  26892252063                       # Time in different power states
system.mem_ctrls1_0.memoryStateTime::ACT_PDN 635207579214                       # Time in different power states
system.mem_ctrls1_1.actEnergy              1631939820                       # Energy for activate commands per rank (pJ)
system.mem_ctrls1_1.preEnergy               867396585                       # Energy for precharge commands per rank (pJ)
system.mem_ctrls1_1.readEnergy             3506268360                       # Energy for read commands per rank (pJ)
system.mem_ctrls1_1.writeEnergy             314964360                       # Energy for write commands per rank (pJ)
system.mem_ctrls1_1.refreshEnergy        83465038800.000015                       # Energy for refresh commands per rank (pJ)
system.mem_ctrls1_1.actBackEnergy         27192464460                       # Energy for active background per rank (pJ)
system.mem_ctrls1_1.preBackEnergy          3479003520                       # Energy for precharge background per rank (pJ)
system.mem_ctrls1_1.actPowerDownEnergy   262273604670                       # Energy for active power-down per rank (pJ)
system.mem_ctrls1_1.prePowerDownEnergy   104701950240                       # Energy for precharge power-down per rank (pJ)
system.mem_ctrls1_1.selfRefreshEnergy    131113062540                       # Energy for self refresh per rank (pJ)
system.mem_ctrls1_1.totalEnergy          618577043025                       # Total energy per rank (pJ)
system.mem_ctrls1_1.averagePower           436.203163                       # Core power per rank (mW)
system.mem_ctrls1_1.totalIdleTime        1349327724523                       # Total Idle time Per DRAM Rank
system.mem_ctrls1_1.memoryStateTime::IDLE   5733963859                       # Time in different power states
system.mem_ctrls1_1.memoryStateTime::REF  35426430000                       # Time in different power states
system.mem_ctrls1_1.memoryStateTime::SREF 501508906765                       # Time in different power states
system.mem_ctrls1_1.memoryStateTime::PRE_PDN 272662270702                       # Time in different power states
system.mem_ctrls1_1.memoryStateTime::ACT  27601561387                       # Time in different power states
system.mem_ctrls1_1.memoryStateTime::ACT_PDN 575160755552                       # Time in different power states
system.pwrStateResidencyTicks::UNDEFINED 734370534442251                       # Cumulative time (in ticks) in various power states
system.cpu.branchPred.lookups                       4                       # Number of BP lookups
system.cpu.branchPred.condPredicted                 4                       # Number of conditional branches predicted
system.cpu.branchPred.condIncorrect                 4                       # Number of conditional branches incorrect
system.cpu.branchPred.BTBLookups                    0                       # Number of BTB lookups
system.cpu.branchPred.BTBHits                       0                       # Number of BTB hits
system.cpu.branchPred.BTBCorrect                    0                       # Number of correct BTB predictions (this stat may not work properly.
system.cpu.branchPred.BTBHitPct                   nan                       # BTB Hit Percentage
system.cpu.branchPred.usedRAS                       0                       # Number of times the RAS was used to get a target.
system.cpu.branchPred.RASInCorrect                  0                       # Number of incorrect RAS predictions.
system.cpu.branchPred.indirectLookups               0                       # Number of indirect predictor lookups.
system.cpu.branchPred.indirectHits                  0                       # Number of indirect target hits.
system.cpu.branchPred.indirectMisses                0                       # Number of indirect misses.
system.cpu.branchPredindirectMispredicted            0                       # Number of mispredicted indirect branches.
system.cpu_voltage_domain.voltage                   1                       # Voltage in Volts
system.cpu_clk_domain.clock                       333                       # Clock period in ticks
system.cpu.dtb.fetch_hits                           0                       # ITB hits
system.cpu.dtb.fetch_misses                         0                       # ITB misses
system.cpu.dtb.fetch_acv                            0                       # ITB acv
system.cpu.dtb.fetch_accesses                       0                       # ITB accesses
system.cpu.dtb.read_hits                           36                       # DTB read hits
system.cpu.dtb.read_misses                          0                       # DTB read misses
system.cpu.dtb.read_acv                             0                       # DTB read access violations
system.cpu.dtb.read_accesses                       36                       # DTB read accesses
system.cpu.dtb.write_hits                           0                       # DTB write hits
system.cpu.dtb.write_misses                         0                       # DTB write misses
system.cpu.dtb.write_acv                            0                       # DTB write access violations
system.cpu.dtb.write_accesses                       0                       # DTB write accesses
system.cpu.dtb.data_hits                           36                       # DTB hits
system.cpu.dtb.data_misses                          0                       # DTB misses
system.cpu.dtb.data_acv                             0                       # DTB access violations
system.cpu.dtb.data_accesses                       36                       # DTB accesses
system.cpu.itb.fetch_hits                          13                       # ITB hits
system.cpu.itb.fetch_misses                         0                       # ITB misses
system.cpu.itb.fetch_acv                            0                       # ITB acv
system.cpu.itb.fetch_accesses                      13                       # ITB accesses
system.cpu.itb.read_hits                            0                       # DTB read hits
system.cpu.itb.read_misses                          0                       # DTB read misses
system.cpu.itb.read_acv                             0                       # DTB read access violations
system.cpu.itb.read_accesses                        0                       # DTB read accesses
system.cpu.itb.write_hits                           0                       # DTB write hits
system.cpu.itb.write_misses                         0                       # DTB write misses
system.cpu.itb.write_acv                            0                       # DTB write access violations
system.cpu.itb.write_accesses                       0                       # DTB write accesses
system.cpu.itb.data_hits                            0                       # DTB hits
system.cpu.itb.data_misses                          0                       # DTB misses
system.cpu.itb.data_acv                             0                       # DTB access violations
system.cpu.itb.data_accesses                        0                       # DTB accesses
system.cpu.workload.num_syscalls                   44                       # Number of system calls
system.cpu.pwrStateResidencyTicks::ON    1418093888265                       # Cumulative time (in ticks) in various power states
system.cpu.numCycles                              753                       # number of cpu cycles simulated
system.cpu.numWorkItemsStarted                      0                       # number of work items this cpu started
system.cpu.numWorkItemsCompleted                    0                       # number of work items this cpu completed
system.cpu.fetch.icacheStallCycles                 63                       # Number of cycles fetch is stalled on an Icache miss
system.cpu.fetch.Insts                             96                       # Number of instructions fetch has processed
system.cpu.fetch.Branches                           4                       # Number of branches that fetch encountered
system.cpu.fetch.Cycles                            12                       # Number of cycles fetch has run and was not squashing or blocked
system.cpu.fetch.SquashCycles                      11                       # Number of cycles fetch has spent squashing
system.cpu.fetch.PendingDrainCycles                16                       # Number of cycles fetch has spent waiting on pipes to drain
system.cpu.fetch.CacheLines                        13                       # Number of cache lines fetched
system.cpu.fetch.IcacheSquashes                     5                       # Number of outstanding Icache misses that were squashed
system.cpu.fetch.rateDist::samples                 96                       # Number of instructions fetched each cycle (Total)
system.cpu.fetch.rateDist::mean                     1                       # Number of instructions fetched each cycle (Total)
system.cpu.fetch.rateDist::stdev             2.659640                       # Number of instructions fetched each cycle (Total)
system.cpu.fetch.rateDist::underflows               0      0.00%      0.00% # Number of instructions fetched each cycle (Total)
system.cpu.fetch.rateDist::0                       84     87.50%     87.50% # Number of instructions fetched each cycle (Total)
system.cpu.fetch.rateDist::1                        0      0.00%     87.50% # Number of instructions fetched each cycle (Total)
system.cpu.fetch.rateDist::2                        0      0.00%     87.50% # Number of instructions fetched each cycle (Total)
system.cpu.fetch.rateDist::3                        0      0.00%     87.50% # Number of instructions fetched each cycle (Total)
system.cpu.fetch.rateDist::4                        0      0.00%     87.50% # Number of instructions fetched each cycle (Total)
system.cpu.fetch.rateDist::5                        0      0.00%     87.50% # Number of instructions fetched each cycle (Total)
[...]
system.switch_cpus_1.iq.int_inst_queue_wakeup_accesses    115259948                       # Number of integer instruction queue wakeup accesses
system.switch_cpus_1.iq.fp_inst_queue_reads    210529106                       # Number of floating instruction queue reads
system.switch_cpus_1.iq.fp_inst_queue_writes    113931857                       # Number of floating instruction queue writes
system.switch_cpus_1.iq.fp_inst_queue_wakeup_accesses    101076591                       # Number of floating instruction queue wakeup accesses
system.switch_cpus_1.iq.int_alu_accesses    118823087                       # Number of integer alu accesses
system.switch_cpus_1.iq.fp_alu_accesses     107692872                       # Number of floating point alu accesses
system.switch_cpus_1.iew.lsq.thread0.forwLoads       570660                       # Number of loads that had data forwarded from stores
system.switch_cpus_1.iew.lsq.thread0.invAddrLoads            0                       # Number of loads ignored due to an invalid address
system.switch_cpus_1.iew.lsq.thread0.squashedLoads      6565404                       # Number of loads squashed
system.switch_cpus_1.iew.lsq.thread0.ignoredResponses         8007                       # Number of memory responses ignored because the instruction is squashed
system.switch_cpus_1.iew.lsq.thread0.memOrderViolation         2185                       # Number of memory ordering violations
system.switch_cpus_1.iew.lsq.thread0.squashedStores       673227                       # Number of stores squashed
system.switch_cpus_1.iew.lsq.thread0.invAddrSwpfs            0                       # Number of software prefetches ignored due to an invalid address
system.switch_cpus_1.iew.lsq.thread0.blockedLoads            0                       # Number of blocked loads due to partial load-store forwarding
system.switch_cpus_1.iew.lsq.thread0.rescheduledLoads          148                       # Number of loads that were rescheduled
system.switch_cpus_1.iew.lsq.thread0.cacheBlocked      1999338                       # Number of times an access to memory failed due to the cache being blocked
system.switch_cpus_1.iew.iewIdleCycles              0                       # Number of cycles IEW is idle
system.switch_cpus_1.iew.iewSquashCycles       510600                       # Number of cycles IEW is squashing
system.switch_cpus_1.iew.iewBlockCycles      53810935                       # Number of cycles IEW is blocking
system.switch_cpus_1.iew.iewUnblockCycles     31432795                       # Number of cycles IEW is unblocking
system.switch_cpus_1.iew.iewDispatchedInsts    228167233                       # Number of instructions dispatched to IQ
system.switch_cpus_1.iew.iewDispSquashedInsts       323717                       # Number of squashed instructions skipped by dispatch
system.switch_cpus_1.iew.iewDispLoadInsts     49866501                       # Number of dispatched load instructions
system.switch_cpus_1.iew.iewDispStoreInsts      4056331                       # Number of dispatched store instructions
system.switch_cpus_1.iew.iewDispNonSpecInsts         3529                       # Number of dispatched non-speculative instructions
system.switch_cpus_1.iew.iewIQFullEvents       784265                       # Number of times the IQ has become full, causing a stall
system.switch_cpus_1.iew.iewLSQFullEvents     30138621                       # Number of times the LSQ has become full, causing a stall
system.switch_cpus_1.iew.memOrderViolationEvents         2185                       # Number of memory order violations
system.switch_cpus_1.iew.predictedTakenIncorrect       406269                       # Number of branches that were predicted taken incorrectly
system.switch_cpus_1.iew.predictedNotTakenIncorrect       105171                       # Number of branches that were predicted not taken incorrectly
system.switch_cpus_1.iew.branchMispredicts       511440                       # Number of branch mispredicts detected at execute
system.switch_cpus_1.iew.iewExecutedInsts    219716050                       # Number of executed instructions
system.switch_cpus_1.iew.iewExecLoadInsts     50244235                       # Number of load instructions executed
system.switch_cpus_1.iew.iewExecSquashedInsts      1017868                       # Number of squashed instructions skipped in execute
system.switch_cpus_1.iew.exec_swp                   0                       # number of swp insts executed
system.switch_cpus_1.iew.exec_nop             2132266                       # number of nop insts executed
system.switch_cpus_1.iew.exec_refs           54051356                       # number of memory reference insts executed
system.switch_cpus_1.iew.exec_branches       18018360                       # Number of branches executed
system.switch_cpus_1.iew.exec_stores          3807121                       # Number of stores executed
system.switch_cpus_1.iew.exec_rate           0.980121                       # Inst execution rate
system.switch_cpus_1.iew.wb_sent            217088916                       # cumulative count of insts sent to commit
system.switch_cpus_1.iew.wb_count           216336539                       # cumulative count of insts written-back
system.switch_cpus_1.iew.wb_producers       160268086                       # num instructions producing a value
system.switch_cpus_1.iew.wb_consumers       204431922                       # num instructions consuming a value
system.switch_cpus_1.iew.wb_rate             0.965046                       # insts written-back per cycle
system.switch_cpus_1.iew.wb_fanout           0.783968                       # average fanout of values written-back
system.switch_cpus_1.commit.commitSquashedInsts     25080317                       # The number of squashed insts skipped by commit
system.switch_cpus_1.commit.commitNonSpecStalls         4876                       # The number of times commit has been forced to stall to communicate backwards
system.switch_cpus_1.commit.branchMispredicts       437687                       # The number of times a branch was mispredicted
system.switch_cpus_1.commit.committed_per_cycle::samples    220362613                       # Number of insts commited each cycle
system.switch_cpus_1.commit.committed_per_cycle::mean     0.915252                       # Number of insts commited each cycle
system.switch_cpus_1.commit.committed_per_cycle::stdev     2.345152                       # Number of insts commited each cycle
system.switch_cpus_1.commit.committed_per_cycle::underflows            0      0.00%      0.00% # Number of insts commited each cycle
system.switch_cpus_1.commit.committed_per_cycle::0    183144353     83.11%     83.11% # Number of insts commited each cycle
system.switch_cpus_1.commit.committed_per_cycle::1      6815659      3.09%     86.20% # Number of insts commited each cycle
system.switch_cpus_1.commit.committed_per_cycle::2      3510185      1.59%     87.80% # Number of insts commited each cycle
system.switch_cpus_1.commit.committed_per_cycle::3      1387250      0.63%     88.43% # Number of insts commited each cycle
system.switch_cpus_1.commit.committed_per_cycle::4      1738162      0.79%     89.21% # Number of insts commited each cycle
system.switch_cpus_1.commit.committed_per_cycle::5      1108138      0.50%     89.72% # Number of insts commited each cycle
system.switch_cpus_1.commit.committed_per_cycle::6      4314149      1.96%     91.68% # Number of insts commited each cycle
system.switch_cpus_1.commit.committed_per_cycle::7      1446383      0.66%     92.33% # Number of insts commited each cycle
system.switch_cpus_1.commit.committed_per_cycle::8     16898334      7.67%    100.00% # Number of insts commited each cycle
system.switch_cpus_1.commit.committed_per_cycle::overflows            0      0.00%    100.00% # Number of insts commited each cycle
system.switch_cpus_1.commit.committed_per_cycle::min_value            0                       # Number of insts commited each cycle
system.switch_cpus_1.commit.committed_per_cycle::max_value            8                       # Number of insts commited each cycle
system.switch_cpus_1.commit.committed_per_cycle::total    220362613                       # Number of insts commited each cycle
system.switch_cpus_1.commit.committedInsts    201687364                       # Number of instructions committed
system.switch_cpus_1.commit.committedOps    201687364                       # Number of ops (including micro ops) committed
system.switch_cpus_1.commit.swp_count               0                       # Number of s/w prefetches committed
system.switch_cpus_1.commit.refs             46684198                       # Number of memory references committed
system.switch_cpus_1.commit.loads            43301094                       # Number of loads committed
system.switch_cpus_1.commit.membars              2438                       # Number of memory barriers committed
system.switch_cpus_1.commit.branches         16053531                       # Number of branches committed
system.switch_cpus_1.commit.fp_insts         97819303                       # Number of committed floating point instructions.
system.switch_cpus_1.commit.int_insts       136497010                       # Number of committed integer instructions.
system.switch_cpus_1.commit.function_calls       279259                       # Number of function calls committed.
system.switch_cpus_1.commit.op_class_0::No_OpClass      1687643      0.84%      0.84% # Class of committed instruction
system.switch_cpus_1.commit.op_class_0::IntAlu     89863699     44.56%     45.39% # Class of committed instruction
system.switch_cpus_1.commit.op_class_0::IntMult          759      0.00%     45.39% # Class of committed instruction
system.switch_cpus_1.commit.op_class_0::IntDiv            0      0.00%     45.39% # Class of committed instruction
system.switch_cpus_1.commit.op_class_0::FloatAdd     37891739     18.79%     64.18% # Class of committed instruction
system.switch_cpus_1.commit.op_class_0::FloatCmp       635720      0.32%     64.50% # Class of committed instruction
system.switch_cpus_1.commit.op_class_0::FloatCvt       230023      0.11%     64.61% # Class of committed instruction
system.switch_cpus_1.commit.op_class_0::FloatMult     24664631     12.23%     76.84% # Class of committed instruction
system.switch_cpus_1.commit.op_class_0::FloatMultAcc            0      0.00%     76.84% # Class of committed instruction
system.switch_cpus_1.commit.op_class_0::FloatDiv        26514      0.01%     76.85% # Class of committed instruction
system.switch_cpus_1.commit.op_class_0::FloatMisc            0      0.00%     76.85% # Class of committed instruction
system.switch_cpus_1.commit.op_class_0::FloatSqrt            0      0.00%     76.85% # Class of committed instruction
system.switch_cpus_1.commit.op_class_0::SimdAdd            0      0.00%     76.85% # Class of committed instruction
system.switch_cpus_1.commit.op_class_0::SimdAddAcc            0      0.00%     76.85% # Class of committed instruction
system.switch_cpus_1.commit.op_class_0::SimdAlu            0      0.00%     76.85% # Class of committed instruction
system.switch_cpus_1.commit.op_class_0::SimdCmp            0      0.00%     76.85% # Class of committed instruction
system.switch_cpus_1.commit.op_class_0::SimdCvt            0      0.00%     76.85% # Class of committed instruction
system.switch_cpus_1.commit.op_class_0::SimdMisc            0      0.00%     76.85% # Class of committed instruction
system.switch_cpus_1.commit.op_class_0::SimdMult            0      0.00%     76.85% # Class of committed instruction
system.switch_cpus_1.commit.op_class_0::SimdMultAcc            0      0.00%     76.85% # Class of committed instruction
system.switch_cpus_1.commit.op_class_0::SimdShift            0      0.00%     76.85% # Class of committed instruction
system.switch_cpus_1.commit.op_class_0::SimdShiftAcc            0      0.00%     76.85% # Class of committed instruction
system.switch_cpus_1.commit.op_class_0::SimdSqrt            0      0.00%     76.85% # Class of committed instruction
system.switch_cpus_1.commit.op_class_0::SimdFloatAdd            0      0.00%     76.85% # Class of committed instruction
system.switch_cpus_1.commit.op_class_0::SimdFloatAlu            0      0.00%     76.85% # Class of committed instruction
system.switch_cpus_1.commit.op_class_0::SimdFloatCmp            0      0.00%     76.85% # Class of committed instruction
system.switch_cpus_1.commit.op_class_0::SimdFloatCvt            0      0.00%     76.85% # Class of committed instruction
system.switch_cpus_1.commit.op_class_0::SimdFloatDiv            0      0.00%     76.85% # Class of committed instruction
system.switch_cpus_1.commit.op_class_0::SimdFloatMisc            0      0.00%     76.85% # Class of committed instruction
system.switch_cpus_1.commit.op_class_0::SimdFloatMult            0      0.00%     76.85% # Class of committed instruction
system.switch_cpus_1.commit.op_class_0::SimdFloatMultAcc            0      0.00%     76.85% # Class of committed instruction
system.switch_cpus_1.commit.op_class_0::SimdFloatSqrt            0      0.00%     76.85% # Class of committed instruction
system.switch_cpus_1.commit.op_class_0::MemRead      9751532      4.83%     81.69% # Class of committed instruction
system.switch_cpus_1.commit.op_class_0::MemWrite      2564428      1.27%     82.96% # Class of committed instruction
system.switch_cpus_1.commit.op_class_0::FloatMemRead     33552000     16.64%     99.59% # Class of committed instruction
system.switch_cpus_1.commit.op_class_0::FloatMemWrite       818676      0.41%    100.00% # Class of committed instruction
system.switch_cpus_1.commit.op_class_0::IprAccess            0      0.00%    100.00% # Class of committed instruction
system.switch_cpus_1.commit.op_class_0::InstPrefetch            0      0.00%    100.00% # Class of committed instruction
system.switch_cpus_1.commit.op_class_0::total    201687364                       # Class of committed instruction
system.switch_cpus_1.commit.bw_lim_events     16898334                       # number cycles where commit BW limit reached
system.switch_cpus_1.rob.rob_reads          429307777                       # The number of ROB reads
system.switch_cpus_1.rob.rob_writes         456944532                       # The number of ROB writes
system.switch_cpus_1.timesIdled                  2450                       # Number of times that the entire CPU went into an idle state and unscheduled itself
system.switch_cpus_1.idleCycles                402624                       # Total number of cycles that the CPU has spent unscheduled due to idling
system.switch_cpus_1.committedInsts         200000005                       # Number of Instructions Simulated
system.switch_cpus_1.committedOps           200000005                       # Number of Ops (including micro ops) Simulated
system.switch_cpus_1.cpi                     1.120862                       # CPI: Cycles Per Instruction
system.switch_cpus_1.cpi_total               1.120862                       # CPI: Total CPI of All Threads
system.switch_cpus_1.ipc                     0.892171                       # IPC: Instructions Per Cycle
system.switch_cpus_1.ipc_total               0.892171                       # IPC: Total IPC of All Threads
system.switch_cpus_1.int_regfile_reads      217846466                       # number of integer regfile reads
system.switch_cpus_1.int_regfile_writes      94942685                       # number of integer regfile writes
system.switch_cpus_1.fp_regfile_reads       130234642                       # number of floating regfile reads
system.switch_cpus_1.fp_regfile_writes      100040964                       # number of floating regfile writes
system.switch_cpus_1.misc_regfile_reads        407365                       # number of misc regfile reads
system.switch_cpus_1.misc_regfile_writes         5018                       # number of misc regfile writes
system.tol3bus.snoop_filter.tot_requests     26332455                       # Total number of requests made to the snoop filter.
system.tol3bus.snoop_filter.hit_single_requests     13164987                       # Number of requests hitting in the snoop filter with a single holder of the requested data.
system.tol3bus.snoop_filter.hit_multi_requests            0                       # Number of requests hitting in the snoop filter with multiple (>1) holders of the requested data.
system.tol3bus.snoop_filter.tot_snoops          15247                       # Total number of snoops made to the snoop filter.
system.tol3bus.snoop_filter.hit_single_snoops        15247                       # Number of snoops hitting in the snoop filter with a single holder of the requested data.
system.tol3bus.snoop_filter.hit_multi_snoops            0                       # Number of snoops hitting in the snoop filter with multiple (>1) holders of the requested data.
system.tol3bus.pwrStateResidencyTicks::UNDEFINED 734370534442251                       # Cumulative time (in ticks) in various power states
system.tol3bus.trans_dist::ReadResp          12311879                       # Transaction distribution
system.tol3bus.trans_dist::WritebackDirty      1816050                       # Transaction distribution
system.tol3bus.trans_dist::CleanEvict        13390657                       # Transaction distribution
system.tol3bus.trans_dist::UpgradeReq              42                       # Transaction distribution
system.tol3bus.trans_dist::UpgradeResp             42                       # Transaction distribution
system.tol3bus.trans_dist::ReadExReq           855589                       # Transaction distribution
system.tol3bus.trans_dist::ReadExResp          855589                       # Transaction distribution
system.tol3bus.trans_dist::ReadSharedReq     12311879                       # Transaction distribution
system.tol3bus.pkt_count_system.cpu.l2.mem_side::system.l3.cpu_side     39499965                       # Packet count per connected master and slave (bytes)
system.tol3bus.pkt_size_system.cpu.l2.mem_side::system.l3.cpu_side    945325632                       # Cumulative packet size per connected master and slave (bytes)
system.tol3bus.snoops                         2041762                       # Total snoops (count)
system.tol3bus.snoopTraffic                  13619520                       # Total snoop traffic (bytes)
system.tol3bus.snoop_fanout::samples         15209272                       # Request fanout histogram
system.tol3bus.snoop_fanout::mean            0.001002                       # Request fanout histogram
system.tol3bus.snoop_fanout::stdev           0.031646                       # Request fanout histogram
system.tol3bus.snoop_fanout::underflows             0      0.00%      0.00% # Request fanout histogram
system.tol3bus.snoop_fanout::0               15194025     99.90%     99.90% # Request fanout histogram
system.tol3bus.snoop_fanout::1                  15247      0.10%    100.00% # Request fanout histogram
system.tol3bus.snoop_fanout::overflows              0      0.00%    100.00% # Request fanout histogram
system.tol3bus.snoop_fanout::min_value              0                       # Request fanout histogram
system.tol3bus.snoop_fanout::max_value              1                       # Request fanout histogram
system.tol3bus.snoop_fanout::total           15209272                       # Request fanout histogram
system.tol3bus.reqLayer0.occupancy         9302588100                       # Layer occupancy (ticks)
system.tol3bus.reqLayer0.utilization              0.7                       # Layer utilization (%)
system.tol3bus.respLayer0.occupancy        8769547674                       # Layer occupancy (ticks)
system.tol3bus.respLayer0.utilization             0.6                       # Layer utilization (%)

---------- End Simulation Statistics   ----------
