
---------- Begin Simulation Statistics ----------
sim_seconds                                  2.676097                       # Number of seconds simulated
sim_ticks                                2676097312911                       # Number of ticks simulated
final_tick                               146153085629985                       # Number of ticks from beginning of simulation (restored from checkpoints and never reset)
sim_freq                                 1000000000000                       # Frequency of simulated ticks
host_inst_rate                                 255491                       # Simulator instruction rate (inst/s)
host_op_rate                                   255491                       # Simulator op (including micro ops) rate (op/s)
host_tick_rate                              569765882                       # Simulator tick rate (ticks/s)
host_mem_usage                                2540952                       # Number of bytes of host memory used
host_seconds                                  4696.84                       # Real time elapsed on the host
sim_insts                                  1200000006                       # Number of instructions simulated
sim_ops                                    1200000006                       # Number of ops (including micro ops) simulated
system.voltage_domain.voltage                       1                       # Voltage in Volts
system.clk_domain.clock                          1000                       # Clock period in ticks
system.mem_ctrls0.pwrStateResidencyTicks::UNDEFINED 146153085629985                       # Cumulative time (in ticks) in various power states
system.mem_ctrls0.bytes_read::cpu.inst            128                       # Number of bytes read from this memory
system.mem_ctrls0.bytes_read::cpu.data            256                       # Number of bytes read from this memory
system.mem_ctrls0.bytes_read::switch_cpus.inst        20864                       # Number of bytes read from this memory
system.mem_ctrls0.bytes_read::switch_cpus.data    482930560                       # Number of bytes read from this memory
system.mem_ctrls0.bytes_read::switch_cpus_1.inst         6720                       # Number of bytes read from this memory
system.mem_ctrls0.bytes_read::switch_cpus_1.data     85435584                       # Number of bytes read from this memory
system.mem_ctrls0.bytes_read::total         568394112                       # Number of bytes read from this memory
system.mem_ctrls0.bytes_inst_read::cpu.inst          128                       # Number of instructions bytes read from this memory
system.mem_ctrls0.bytes_inst_read::switch_cpus.inst        20864                       # Number of instructions bytes read from this memory
system.mem_ctrls0.bytes_inst_read::switch_cpus_1.inst         6720                       # Number of instructions bytes read from this memory
system.mem_ctrls0.bytes_inst_read::total        27712                       # Number of instructions bytes read from this memory
system.mem_ctrls0.bytes_written::writebacks    280535616                       # Number of bytes written to this memory
system.mem_ctrls0.bytes_written::total      280535616                       # Number of bytes written to this memory
system.mem_ctrls0.num_reads::cpu.inst               2                       # Number of read requests responded to by this memory
system.mem_ctrls0.num_reads::cpu.data               4                       # Number of read requests responded to by this memory
system.mem_ctrls0.num_reads::switch_cpus.inst          326                       # Number of read requests responded to by this memory
system.mem_ctrls0.num_reads::switch_cpus.data      7545790                       # Number of read requests responded to by this memory
system.mem_ctrls0.num_reads::switch_cpus_1.inst          105                       # Number of read requests responded to by this memory
system.mem_ctrls0.num_reads::switch_cpus_1.data      1334931                       # Number of read requests responded to by this memory
system.mem_ctrls0.num_reads::total            8881158                       # Number of read requests responded to by this memory
system.mem_ctrls0.num_writes::writebacks      4383369                       # Number of write requests responded to by this memory
system.mem_ctrls0.num_writes::total           4383369                       # Number of write requests responded to by this memory
system.mem_ctrls0.bw_read::cpu.inst                48                       # Total read bandwidth from this memory (bytes/s)
system.mem_ctrls0.bw_read::cpu.data                96                       # Total read bandwidth from this memory (bytes/s)
system.mem_ctrls0.bw_read::switch_cpus.inst         7796                       # Total read bandwidth from this memory (bytes/s)
system.mem_ctrls0.bw_read::switch_cpus.data    180460762                       # Total read bandwidth from this memory (bytes/s)
system.mem_ctrls0.bw_read::switch_cpus_1.inst         2511                       # Total read bandwidth from this memory (bytes/s)
system.mem_ctrls0.bw_read::switch_cpus_1.data     31925440                       # Total read bandwidth from this memory (bytes/s)
system.mem_ctrls0.bw_read::total            212396653                       # Total read bandwidth from this memory (bytes/s)
system.mem_ctrls0.bw_inst_read::cpu.inst           48                       # Instruction read bandwidth from this memory (bytes/s)
system.mem_ctrls0.bw_inst_read::switch_cpus.inst         7796                       # Instruction read bandwidth from this memory (bytes/s)
system.mem_ctrls0.bw_inst_read::switch_cpus_1.inst         2511                       # Instruction read bandwidth from this memory (bytes/s)
system.mem_ctrls0.bw_inst_read::total           10355                       # Instruction read bandwidth from this memory (bytes/s)
system.mem_ctrls0.bw_write::writebacks      104830125                       # Write bandwidth from this memory (bytes/s)
system.mem_ctrls0.bw_write::total           104830125                       # Write bandwidth from this memory (bytes/s)
system.mem_ctrls0.bw_total::writebacks      104830125                       # Total bandwidth to/from this memory (bytes/s)
system.mem_ctrls0.bw_total::cpu.inst               48                       # Total bandwidth to/from this memory (bytes/s)
system.mem_ctrls0.bw_total::cpu.data               96                       # Total bandwidth to/from this memory (bytes/s)
system.mem_ctrls0.bw_total::switch_cpus.inst         7796                       # Total bandwidth to/from this memory (bytes/s)
system.mem_ctrls0.bw_total::switch_cpus.data    180460762                       # Total bandwidth to/from this memory (bytes/s)
system.mem_ctrls0.bw_total::switch_cpus_1.inst         2511                       # Total bandwidth to/from this memory (bytes/s)
system.mem_ctrls0.bw_total::switch_cpus_1.data     31925440                       # Total bandwidth to/from this memory (bytes/s)
system.mem_ctrls0.bw_total::total           317226778                       # Total bandwidth to/from this memory (bytes/s)
system.mem_ctrls0.readReqs                    8881158                       # Number of read requests accepted
system.mem_ctrls0.writeReqs                   4383369                       # Number of write requests accepted
system.mem_ctrls0.readBursts                  8881158                       # Number of DRAM read bursts, including those serviced by the write queue
system.mem_ctrls0.writeBursts                 4383369                       # Number of DRAM write bursts, including those merged in the write queue
system.mem_ctrls0.bytesReadDRAM             568392320                       # Total number of bytes read from DRAM
system.mem_ctrls0.bytesReadWrQ                   1792                       # Total number of bytes read from write queue
system.mem_ctrls0.bytesWritten              280534336                       # Total number of bytes written to DRAM
system.mem_ctrls0.bytesReadSys              568394112                       # Total read bytes from the system interface side
system.mem_ctrls0.bytesWrittenSys           280535616                       # Total written bytes from the system interface side
system.mem_ctrls0.servicedByWrQ                    28                       # Number of DRAM read bursts serviced by the write queue
system.mem_ctrls0.mergedWrBursts                    0                       # Number of DRAM write bursts merged with an existing one
system.mem_ctrls0.neitherReadNorWriteReqs            0                       # Number of requests that are neither read nor write
system.mem_ctrls0.perBankRdBursts::0           555121                       # Per bank write bursts
system.mem_ctrls0.perBankRdBursts::1           553269                       # Per bank write bursts
system.mem_ctrls0.perBankRdBursts::2           554640                       # Per bank write bursts
system.mem_ctrls0.perBankRdBursts::3           556608                       # Per bank write bursts
system.mem_ctrls0.perBankRdBursts::4           556194                       # Per bank write bursts
system.mem_ctrls0.perBankRdBursts::5           554755                       # Per bank write bursts
system.mem_ctrls0.perBankRdBursts::6           554896                       # Per bank write bursts
system.mem_ctrls0.perBankRdBursts::7           555561                       # Per bank write bursts
system.mem_ctrls0.perBankRdBursts::8           556554                       # Per bank write bursts
system.mem_ctrls0.perBankRdBursts::9           553260                       # Per bank write bursts
system.mem_ctrls0.perBankRdBursts::10          552048                       # Per bank write bursts
system.mem_ctrls0.perBankRdBursts::11          555185                       # Per bank write bursts
system.mem_ctrls0.perBankRdBursts::12          555881                       # Per bank write bursts
system.mem_ctrls0.perBankRdBursts::13          556307                       # Per bank write bursts
system.mem_ctrls0.perBankRdBursts::14          556249                       # Per bank write bursts
system.mem_ctrls0.perBankRdBursts::15          554602                       # Per bank write bursts
system.mem_ctrls0.perBankWrBursts::0           275329                       # Per bank write bursts
system.mem_ctrls0.perBankWrBursts::1           273871                       # Per bank write bursts
system.mem_ctrls0.perBankWrBursts::2           273414                       # Per bank write bursts
system.mem_ctrls0.perBankWrBursts::3           274164                       # Per bank write bursts
system.mem_ctrls0.perBankWrBursts::4           274313                       # Per bank write bursts
system.mem_ctrls0.perBankWrBursts::5           274031                       # Per bank write bursts
system.mem_ctrls0.perBankWrBursts::6           273972                       # Per bank write bursts
system.mem_ctrls0.perBankWrBursts::7           273455                       # Per bank write bursts
system.mem_ctrls0.perBankWrBursts::8           273237                       # Per bank write bursts
system.mem_ctrls0.perBankWrBursts::9           272855                       # Per bank write bursts
system.mem_ctrls0.perBankWrBursts::10          273814                       # Per bank write bursts
system.mem_ctrls0.perBankWrBursts::11          275395                       # Per bank write bursts
system.mem_ctrls0.perBankWrBursts::12          274252                       # Per bank write bursts
system.mem_ctrls0.perBankWrBursts::13          272963                       # Per bank write bursts
system.mem_ctrls0.perBankWrBursts::14          273424                       # Per bank write bursts
system.mem_ctrls0.perBankWrBursts::15          274860                       # Per bank write bursts
system.mem_ctrls0.numRdRetry                        0                       # Number of times read queue was full causing retry
system.mem_ctrls0.numWrRetry                        0                       # Number of times write queue was full causing retry
system.mem_ctrls0.totGap                 2676097280610                       # Total gap between requests
system.mem_ctrls0.readPktSize::0                    0                       # Read request sizes (log2)
system.mem_ctrls0.readPktSize::1                    0                       # Read request sizes (log2)
system.mem_ctrls0.readPktSize::2                    0                       # Read request sizes (log2)
system.mem_ctrls0.readPktSize::3                    0                       # Read request sizes (log2)
system.mem_ctrls0.readPktSize::4                    0                       # Read request sizes (log2)
system.mem_ctrls0.readPktSize::5                    0                       # Read request sizes (log2)
system.mem_ctrls0.readPktSize::6              8881158                       # Read request sizes (log2)
system.mem_ctrls0.writePktSize::0                   0                       # Write request sizes (log2)
system.mem_ctrls0.writePktSize::1                   0                       # Write request sizes (log2)
system.mem_ctrls0.writePktSize::2                   0                       # Write request sizes (log2)
system.mem_ctrls0.writePktSize::3                   0                       # Write request sizes (log2)
system.mem_ctrls0.writePktSize::4                   0                       # Write request sizes (log2)
system.mem_ctrls0.writePktSize::5                   0                       # Write request sizes (log2)
system.mem_ctrls0.writePktSize::6             4383369                       # Write request sizes (log2)
system.mem_ctrls0.rdQLenPdf::0                8408640                       # What read queue length does an incoming req see
system.mem_ctrls0.rdQLenPdf::1                 340510                       # What read queue length does an incoming req see
system.mem_ctrls0.rdQLenPdf::2                 112738                       # What read queue length does an incoming req see
system.mem_ctrls0.rdQLenPdf::3                  19240                       # What read queue length does an incoming req see
system.mem_ctrls0.rdQLenPdf::4                      2                       # What read queue length does an incoming req see
system.mem_ctrls0.rdQLenPdf::5                      0                       # What read queue length does an incoming req see
system.mem_ctrls0.rdQLenPdf::6                      0                       # What read queue length does an incoming req see
system.mem_ctrls0.rdQLenPdf::7                      0                       # What read queue length does an incoming req see
system.mem_ctrls0.rdQLenPdf::8                      0                       # What read queue length does an incoming req see
system.mem_ctrls0.rdQLenPdf::9                      0                       # What read queue length does an incoming req see
system.mem_ctrls0.rdQLenPdf::10                     0                       # What read queue length does an incoming req see
system.mem_ctrls0.rdQLenPdf::11                     0                       # What read queue length does an incoming req see
system.mem_ctrls0.rdQLenPdf::12                     0                       # What read queue length does an incoming req see
system.mem_ctrls0.rdQLenPdf::13                     0                       # What read queue length does an incoming req see
system.mem_ctrls0.rdQLenPdf::14                     0                       # What read queue length does an incoming req see
system.mem_ctrls0.rdQLenPdf::15                     0                       # What read queue length does an incoming req see
system.mem_ctrls0.rdQLenPdf::16                     0                       # What read queue length does an incoming req see
system.mem_ctrls0.rdQLenPdf::17                     0                       # What read queue length does an incoming req see
system.mem_ctrls0.rdQLenPdf::18                     0                       # What read queue length does an incoming req see
system.mem_ctrls0.rdQLenPdf::19                     0                       # What read queue length does an incoming req see
system.mem_ctrls0.rdQLenPdf::20                     0                       # What read queue length does an incoming req see
system.mem_ctrls0.rdQLenPdf::21                     0                       # What read queue length does an incoming req see
system.mem_ctrls0.rdQLenPdf::22                     0                       # What read queue length does an incoming req see
system.mem_ctrls0.rdQLenPdf::23                     0                       # What read queue length does an incoming req see
system.mem_ctrls0.rdQLenPdf::24                     0                       # What read queue length does an incoming req see
system.mem_ctrls0.rdQLenPdf::25                     0                       # What read queue length does an incoming req see
system.mem_ctrls0.rdQLenPdf::26                     0                       # What read queue length does an incoming req see
system.mem_ctrls0.rdQLenPdf::27                     0                       # What read queue length does an incoming req see
system.mem_ctrls0.rdQLenPdf::28                     0                       # What read queue length does an incoming req see
system.mem_ctrls0.rdQLenPdf::29                     0                       # What read queue length does an incoming req see
system.mem_ctrls0.rdQLenPdf::30                     0                       # What read queue length does an incoming req see
system.mem_ctrls0.rdQLenPdf::31                     0                       # What read queue length does an incoming req see
system.mem_ctrls0.wrQLenPdf::0                      2                       # What write queue length does an incoming req see
system.mem_ctrls0.wrQLenPdf::1                      2                       # What write queue length does an incoming req see
system.mem_ctrls0.wrQLenPdf::2                      2                       # What write queue length does an incoming req see
system.mem_ctrls0.wrQLenPdf::3                      2                       # What write queue length does an incoming req see
system.mem_ctrls0.wrQLenPdf::4                      2                       # What write queue length does an incoming req see
system.mem_ctrls0.wrQLenPdf::5                      2                       # What write queue length does an incoming req see
system.mem_ctrls0.wrQLenPdf::6                      2                       # What write queue length does an incoming req see
system.mem_ctrls0.wrQLenPdf::7                      2                       # What write queue length does an incoming req see
system.mem_ctrls0.wrQLenPdf::8                      2                       # What write queue length does an incoming req see
system.mem_ctrls0.wrQLenPdf::9                      2                       # What write queue length does an incoming req see
system.mem_ctrls0.wrQLenPdf::10                     2                       # What write queue length does an incoming req see
system.mem_ctrls0.wrQLenPdf::11                     2                       # What write queue length does an incoming req see
system.mem_ctrls0.wrQLenPdf::12                     2                       # What write queue length does an incoming req see
system.mem_ctrls0.wrQLenPdf::13                     2                       # What write queue length does an incoming req see
system.mem_ctrls0.wrQLenPdf::14                     2                       # What write queue length does an incoming req see
system.mem_ctrls0.wrQLenPdf::15                137830                       # What write queue length does an incoming req see
system.mem_ctrls0.wrQLenPdf::16                144034                       # What write queue length does an incoming req see
system.mem_ctrls0.wrQLenPdf::17                245998                       # What write queue length does an incoming req see
system.mem_ctrls0.wrQLenPdf::18                255288                       # What write queue length does an incoming req see
system.mem_ctrls0.wrQLenPdf::19                257008                       # What write queue length does an incoming req see
system.mem_ctrls0.wrQLenPdf::20                257073                       # What write queue length does an incoming req see
system.mem_ctrls0.wrQLenPdf::21                256960                       # What write queue length does an incoming req see
system.mem_ctrls0.wrQLenPdf::22                256967                       # What write queue length does an incoming req see
system.mem_ctrls0.wrQLenPdf::23                257048                       # What write queue length does an incoming req see
system.mem_ctrls0.wrQLenPdf::24                257003                       # What write queue length does an incoming req see
system.mem_ctrls0.wrQLenPdf::25                256899                       # What write queue length does an incoming req see
system.mem_ctrls0.wrQLenPdf::26                256757                       # What write queue length does an incoming req see
system.mem_ctrls0.wrQLenPdf::27                256897                       # What write queue length does an incoming req see
system.mem_ctrls0.wrQLenPdf::28                257672                       # What write queue length does an incoming req see
system.mem_ctrls0.wrQLenPdf::29                258069                       # What write queue length does an incoming req see
system.mem_ctrls0.wrQLenPdf::30                259542                       # What write queue length does an incoming req see
system.mem_ctrls0.wrQLenPdf::31                256118                       # What write queue length does an incoming req see
system.mem_ctrls0.wrQLenPdf::32                255798                       # What write queue length does an incoming req see
system.mem_ctrls0.wrQLenPdf::33                   308                       # What write queue length does an incoming req see
system.mem_ctrls0.wrQLenPdf::34                    51                       # What write queue length does an incoming req see
system.mem_ctrls0.wrQLenPdf::35                    12                       # What write queue length does an incoming req see
system.mem_ctrls0.wrQLenPdf::36                     5                       # What write queue length does an incoming req see
system.mem_ctrls0.wrQLenPdf::37                     2                       # What write queue length does an incoming req see
system.mem_ctrls0.wrQLenPdf::38                     0                       # What write queue length does an incoming req see
system.mem_ctrls0.wrQLenPdf::39                     0                       # What write queue length does an incoming req see
system.mem_ctrls0.wrQLenPdf::40                     0                       # What write queue length does an incoming req see
system.mem_ctrls0.wrQLenPdf::41                     0                       # What write queue length does an incoming req see
system.mem_ctrls0.wrQLenPdf::42                     0                       # What write queue length does an incoming req see
system.mem_ctrls0.wrQLenPdf::43                     0                       # What write queue length does an incoming req see
system.mem_ctrls0.wrQLenPdf::44                     0                       # What write queue length does an incoming req see
system.mem_ctrls0.wrQLenPdf::45                     0                       # What write queue length does an incoming req see
system.mem_ctrls0.wrQLenPdf::46                     0                       # What write queue length does an incoming req see
system.mem_ctrls0.wrQLenPdf::47                     0                       # What write queue length does an incoming req see
system.mem_ctrls0.wrQLenPdf::48                     0                       # What write queue length does an incoming req see
system.mem_ctrls0.wrQLenPdf::49                     0                       # What write queue length does an incoming req see
system.mem_ctrls0.wrQLenPdf::50                     0                       # What write queue length does an incoming req see
system.mem_ctrls0.wrQLenPdf::51                     0                       # What write queue length does an incoming req see
system.mem_ctrls0.wrQLenPdf::52                     0                       # What write queue length does an incoming req see
system.mem_ctrls0.wrQLenPdf::53                     0                       # What write queue length does an incoming req see
system.mem_ctrls0.wrQLenPdf::54                     0                       # What write queue length does an incoming req see
system.mem_ctrls0.wrQLenPdf::55                     0                       # What write queue length does an incoming req see
system.mem_ctrls0.wrQLenPdf::56                     0                       # What write queue length does an incoming req see
system.mem_ctrls0.wrQLenPdf::57                     0                       # What write queue length does an incoming req see
system.mem_ctrls0.wrQLenPdf::58                     0                       # What write queue length does an incoming req see
system.mem_ctrls0.wrQLenPdf::59                     0                       # What write queue length does an incoming req see
system.mem_ctrls0.wrQLenPdf::60                     0                       # What write queue length does an incoming req see
system.mem_ctrls0.wrQLenPdf::61                     0                       # What write queue length does an incoming req see
system.mem_ctrls0.wrQLenPdf::62                     0                       # What write queue length does an incoming req see
system.mem_ctrls0.wrQLenPdf::63                     0                       # What write queue length does an incoming req see
system.mem_ctrls0.bytesPerActivate::samples      8769457                       # Bytes accessed per row activation
system.mem_ctrls0.bytesPerActivate::mean    96.804819                       # Bytes accessed per row activation
system.mem_ctrls0.bytesPerActivate::gmean    84.726075                       # Bytes accessed per row activation
system.mem_ctrls0.bytesPerActivate::stdev    64.333076                       # Bytes accessed per row activation
system.mem_ctrls0.bytesPerActivate::0-127      6124508     69.84%     69.84% # Bytes accessed per row activation
system.mem_ctrls0.bytesPerActivate::128-255      2154754     24.57%     94.41% # Bytes accessed per row activation
system.mem_ctrls0.bytesPerActivate::256-383       421981      4.81%     99.22% # Bytes accessed per row activation
system.mem_ctrls0.bytesPerActivate::384-511        47026      0.54%     99.76% # Bytes accessed per row activation
system.mem_ctrls0.bytesPerActivate::512-639        13481      0.15%     99.91% # Bytes accessed per row activation
system.mem_ctrls0.bytesPerActivate::640-767         4503      0.05%     99.96% # Bytes accessed per row activation
system.mem_ctrls0.bytesPerActivate::768-895         1473      0.02%     99.98% # Bytes accessed per row activation
system.mem_ctrls0.bytesPerActivate::896-1023          609      0.01%     99.99% # Bytes accessed per row activation
system.mem_ctrls0.bytesPerActivate::1024-1151         1122      0.01%    100.00% # Bytes accessed per row activation
system.mem_ctrls0.bytesPerActivate::total      8769457                       # Bytes accessed per row activation
system.mem_ctrls0.rdPerTurnAround::samples       255537                       # Reads before turning the bus around for writes
system.mem_ctrls0.rdPerTurnAround::mean     34.754744                       # Reads before turning the bus around for writes
system.mem_ctrls0.rdPerTurnAround::stdev    56.095548                       # Reads before turning the bus around for writes
system.mem_ctrls0.rdPerTurnAround::0-1023       255535    100.00%    100.00% # Reads before turning the bus around for writes
system.mem_ctrls0.rdPerTurnAround::1024-2047            1      0.00%    100.00% # Reads before turning the bus around for writes
system.mem_ctrls0.rdPerTurnAround::27648-28671            1      0.00%    100.00% # Reads before turning the bus around for writes
system.mem_ctrls0.rdPerTurnAround::total       255537                       # Reads before turning the bus around for writes
system.mem_ctrls0.wrPerTurnAround::samples       255537                       # Writes before turning the bus around for reads
system.mem_ctrls0.wrPerTurnAround::mean     17.153481                       # Writes before turning the bus around for reads
system.mem_ctrls0.wrPerTurnAround::gmean    17.120347                       # Writes before turning the bus around for reads
system.mem_ctrls0.wrPerTurnAround::stdev     1.066383                       # Writes before turning the bus around for reads
system.mem_ctrls0.wrPerTurnAround::16          112950     44.20%     44.20% # Writes before turning the bus around for reads
system.mem_ctrls0.wrPerTurnAround::17            3858      1.51%     45.71% # Writes before turning the bus around for reads
system.mem_ctrls0.wrPerTurnAround::18          126897     49.66%     95.37% # Writes before turning the bus around for reads
system.mem_ctrls0.wrPerTurnAround::19           10599      4.15%     99.52% # Writes before turning the bus around for reads
system.mem_ctrls0.wrPerTurnAround::20            1006      0.39%     99.91% # Writes before turning the bus around for reads
system.mem_ctrls0.wrPerTurnAround::21             159      0.06%     99.97% # Writes before turning the bus around for reads
system.mem_ctrls0.wrPerTurnAround::22              30      0.01%     99.99% # Writes before turning the bus around for reads
system.mem_ctrls0.wrPerTurnAround::23              18      0.01%     99.99% # Writes before turning the bus around for reads
system.mem_ctrls0.wrPerTurnAround::24               9      0.00%    100.00% # Writes before turning the bus around for reads
system.mem_ctrls0.wrPerTurnAround::25               5      0.00%    100.00% # Writes before turning the bus around for reads
system.mem_ctrls0.wrPerTurnAround::26               3      0.00%    100.00% # Writes before turning the bus around for reads
system.mem_ctrls0.wrPerTurnAround::27               1      0.00%    100.00% # Writes before turning the bus around for reads
system.mem_ctrls0.wrPerTurnAround::28               1      0.00%    100.00% # Writes before turning the bus around for reads
system.mem_ctrls0.wrPerTurnAround::29               1      0.00%    100.00% # Writes before turning the bus around for reads
system.mem_ctrls0.wrPerTurnAround::total       255537                       # Writes before turning the bus around for reads
system.mem_ctrls0.totQLat                236284738055                       # Total ticks spent queuing
system.mem_ctrls0.totMemAccLat           402805925555                       # Total ticks spent from burst creation until serviced by the DRAM
system.mem_ctrls0.totBusLat               44405650000                       # Total ticks spent in databus transfers
system.mem_ctrls0.avgQLat                    26605.26                       # Average queueing delay per DRAM burst
system.mem_ctrls0.avgBusLat                   5000.00                       # Average bus latency per DRAM burst
system.mem_ctrls0.avgMemAccLat               45355.26                       # Average memory access latency per DRAM burst
system.mem_ctrls0.avgRdBW                      212.40                       # Average DRAM read bandwidth in MiByte/s
system.mem_ctrls0.avgWrBW                      104.83                       # Average achieved write bandwidth in MiByte/s
system.mem_ctrls0.avgRdBWSys                   212.40                       # Average system read bandwidth in MiByte/s
system.mem_ctrls0.avgWrBWSys                   104.83                       # Average system write bandwidth in MiByte/s
system.mem_ctrls0.peakBW                     12800.00                       # Theoretical peak bandwidth in MiByte/s
system.mem_ctrls0.busUtil                        2.48                       # Data bus utilization in percentage
system.mem_ctrls0.busUtilRead                    1.66                       # Data bus utilization in percentage for reads
system.mem_ctrls0.busUtilWrite                   0.82                       # Data bus utilization in percentage for writes
system.mem_ctrls0.avgRdQLen                      1.03                       # Average read queue length when enqueuing
system.mem_ctrls0.avgWrQLen                     24.83                       # Average write queue length when enqueuing
system.mem_ctrls0.readRowHits                 3215185                       # Number of row buffer hits during reads
system.mem_ctrls0.writeRowHits                1279826                       # Number of row buffer hits during writes
system.mem_ctrls0.readRowHitRate                36.20                       # Row buffer hit rate for reads
system.mem_ctrls0.writeRowHitRate               29.20                       # Row buffer hit rate for writes
system.mem_ctrls0.avgGap                    201748.41                       # Average gap between requests
system.mem_ctrls0.pageHitRate                   33.89                       # Row buffer hit rate, read and write combined
system.mem_ctrls0_0.actEnergy             31292627940                       # Energy for activate commands per rank (pJ)
system.mem_ctrls0_0.preEnergy             16632399630                       # Energy for precharge commands per rank (pJ)
system.mem_ctrls0_0.readEnergy            31709054160                       # Energy for read commands per rank (pJ)
system.mem_ctrls0_0.writeEnergy           11445105780                       # Energy for write commands per rank (pJ)
system.mem_ctrls0_0.refreshEnergy        210595332480.000061                       # Energy for refresh commands per rank (pJ)
system.mem_ctrls0_0.actBackEnergy        195124217730                       # Energy for active background per rank (pJ)
system.mem_ctrls0_0.preBackEnergy          5502411840                       # Energy for precharge background per rank (pJ)
system.mem_ctrls0_0.actPowerDownEnergy   909284737740                       # Energy for active power-down per rank (pJ)
system.mem_ctrls0_0.prePowerDownEnergy    75536177280                       # Energy for precharge power-down per rank (pJ)
system.mem_ctrls0_0.selfRefreshEnergy     13005359865                       # Energy for self refresh per rank (pJ)
system.mem_ctrls0_0.totalEnergy          1500147384675                       # Total energy per rank (pJ)
system.mem_ctrls0_0.averagePower           560.572804                       # Core power per rank (mW)
system.mem_ctrls0_0.totalIdleTime        2233817285778                       # Total Idle time Per DRAM Rank
system.mem_ctrls0_0.memoryStateTime::IDLE   3266964205                       # Time in different power states
system.mem_ctrls0_0.memoryStateTime::REF  89114812000                       # Time in different power states
system.mem_ctrls0_0.memoryStateTime::SREF  43065405013                       # Time in different power states
system.mem_ctrls0_0.memoryStateTime::PRE_PDN 196711694419                       # Time in different power states
system.mem_ctrls0_0.memoryStateTime::ACT 349898196521                       # Time in different power states
system.mem_ctrls0_0.memoryStateTime::ACT_PDN 1994040240753                       # Time in different power states
system.mem_ctrls0_1.actEnergy             31321373580                       # Energy for activate commands per rank (pJ)
system.mem_ctrls0_1.preEnergy             16647689685                       # Energy for precharge commands per rank (pJ)
system.mem_ctrls0_1.readEnergy            31702214040                       # Energy for read commands per rank (pJ)
system.mem_ctrls0_1.writeEnergy           11435976000                       # Energy for write commands per rank (pJ)
system.mem_ctrls0_1.refreshEnergy        210211797120.000061                       # Energy for refresh commands per rank (pJ)
system.mem_ctrls0_1.actBackEnergy        194269379040                       # Energy for active background per rank (pJ)
system.mem_ctrls0_1.preBackEnergy          5467154880                       # Energy for precharge background per rank (pJ)
system.mem_ctrls0_1.actPowerDownEnergy   910916839260                       # Energy for active power-down per rank (pJ)
system.mem_ctrls0_1.prePowerDownEnergy    74225630880                       # Energy for precharge power-down per rank (pJ)
system.mem_ctrls0_1.selfRefreshEnergy     13203714975                       # Energy for self refresh per rank (pJ)
system.mem_ctrls0_1.totalEnergy          1499421686340                       # Total energy per rank (pJ)
system.mem_ctrls0_1.averagePower           560.301625                       # Core power per rank (mW)
system.mem_ctrls0_1.totalIdleTime        2235797061809                       # Total Idle time Per DRAM Rank
system.mem_ctrls0_1.memoryStateTime::IDLE   3162067117                       # Time in different power states
system.mem_ctrls0_1.memoryStateTime::REF  88950238000                       # Time in different power states
system.mem_ctrls0_1.memoryStateTime::SREF  44865739066                       # Time in different power states
system.mem_ctrls0_1.memoryStateTime::PRE_PDN 193297589672                       # Time in different power states
system.mem_ctrls0_1.memoryStateTime::ACT 348187945985                       # Time in different power states
system.mem_ctrls0_1.memoryStateTime::ACT_PDN 1997633733071                       # Time in different power states
system.mem_ctrls1.pwrStateResidencyTicks::UNDEFINED 146153085629985                       # Cumulative time (in ticks) in various power states
system.mem_ctrls1.bytes_read::cpu.inst             64                       # Number of bytes read from this memory
system.mem_ctrls1.bytes_read::cpu.data             64                       # Number of bytes read from this memory
system.mem_ctrls1.bytes_read::switch_cpus.inst        20288                       # Number of bytes read from this memory
system.mem_ctrls1.bytes_read::switch_cpus.data    482901056                       # Number of bytes read from this memory
system.mem_ctrls1.bytes_read::switch_cpus_1.inst         6656                       # Number of bytes read from this memory
system.mem_ctrls1.bytes_read::switch_cpus_1.data     85447872                       # Number of bytes read from this memory
system.mem_ctrls1.bytes_read::total         568376000                       # Number of bytes read from this memory
system.mem_ctrls1.bytes_inst_read::cpu.inst           64                       # Number of instructions bytes read from this memory
system.mem_ctrls1.bytes_inst_read::switch_cpus.inst        20288                       # Number of instructions bytes read from this memory
system.mem_ctrls1.bytes_inst_read::switch_cpus_1.inst         6656                       # Number of instructions bytes read from this memory
system.mem_ctrls1.bytes_inst_read::total        27008                       # Number of instructions bytes read from this memory
system.mem_ctrls1.bytes_written::writebacks    280523904                       # Number of bytes written to this memory
system.mem_ctrls1.bytes_written::total      280523904                       # Number of bytes written to this memory
system.mem_ctrls1.num_reads::cpu.inst               1                       # Number of read requests responded to by this memory
system.mem_ctrls1.num_reads::cpu.data               1                       # Number of read requests responded to by this memory
system.mem_ctrls1.num_reads::switch_cpus.inst          317                       # Number of read requests responded to by this memory
system.mem_ctrls1.num_reads::switch_cpus.data      7545329                       # Number of read requests responded to by this memory
system.mem_ctrls1.num_reads::switch_cpus_1.inst          104                       # Number of read requests responded to by this memory
system.mem_ctrls1.num_reads::switch_cpus_1.data      1335123                       # Number of read requests responded to by this memory
system.mem_ctrls1.num_reads::total            8880875                       # Number of read requests responded to by this memory
system.mem_ctrls1.num_writes::writebacks      4383186                       # Number of write requests responded to by this memory
system.mem_ctrls1.num_writes::total           4383186                       # Number of write requests responded to by this memory
system.mem_ctrls1.bw_read::cpu.inst                24                       # Total read bandwidth from this memory (bytes/s)
system.mem_ctrls1.bw_read::cpu.data                24                       # Total read bandwidth from this memory (bytes/s)
system.mem_ctrls1.bw_read::switch_cpus.inst         7581                       # Total read bandwidth from this memory (bytes/s)
system.mem_ctrls1.bw_read::switch_cpus.data    180449737                       # Total read bandwidth from this memory (bytes/s)
system.mem_ctrls1.bw_read::switch_cpus_1.inst         2487                       # Total read bandwidth from this memory (bytes/s)
system.mem_ctrls1.bw_read::switch_cpus_1.data     31930032                       # Total read bandwidth from this memory (bytes/s)
system.mem_ctrls1.bw_read::total            212389885                       # Total read bandwidth from this memory (bytes/s)
system.mem_ctrls1.bw_inst_read::cpu.inst           24                       # Instruction read bandwidth from this memory (bytes/s)
system.mem_ctrls1.bw_inst_read::switch_cpus.inst         7581                       # Instruction read bandwidth from this memory (bytes/s)
system.mem_ctrls1.bw_inst_read::switch_cpus_1.inst         2487                       # Instruction read bandwidth from this memory (bytes/s)
system.mem_ctrls1.bw_inst_read::total           10092                       # Instruction read bandwidth from this memory (bytes/s)
system.mem_ctrls1.bw_write::writebacks      104825749                       # Write bandwidth from this memory (bytes/s)
system.mem_ctrls1.bw_write::total           104825749                       # Write bandwidth from this memory (bytes/s)
system.mem_ctrls1.bw_total::writebacks      104825749                       # Total bandwidth to/from this memory (bytes/s)
system.mem_ctrls1.bw_total::cpu.inst               24                       # Total bandwidth to/from this memory (bytes/s)
system.mem_ctrls1.bw_total::cpu.data               24                       # Total bandwidth to/from this memory (bytes/s)
system.mem_ctrls1.bw_total::switch_cpus.inst         7581                       # Total bandwidth to/from this memory (bytes/s)
system.mem_ctrls1.bw_total::switch_cpus.data    180449737                       # Total bandwidth to/from this memory (bytes/s)
system.mem_ctrls1.bw_total::switch_cpus_1.inst         2487                       # Total bandwidth to/from this memory (bytes/s)
system.mem_ctrls1.bw_total::switch_cpus_1.data     31930032                       # Total bandwidth to/from this memory (bytes/s)
system.mem_ctrls1.bw_total::total           317215633                       # Total bandwidth to/from this memory (bytes/s)
system.mem_ctrls1.readReqs                    8880875                       # Number of read requests accepted
system.mem_ctrls1.writeReqs                   4383186                       # Number of write requests accepted
system.mem_ctrls1.readBursts                  8880875                       # Number of DRAM read bursts, including those serviced by the write queue
system.mem_ctrls1.writeBursts                 4383186                       # Number of DRAM write bursts, including those merged in the write queue
system.mem_ctrls1.bytesReadDRAM             568375552                       # Total number of bytes read from DRAM
system.mem_ctrls1.bytesReadWrQ                    448                       # Total number of bytes read from write queue
system.mem_ctrls1.bytesWritten              280522560                       # Total number of bytes written to DRAM
system.mem_ctrls1.bytesReadSys              568376000                       # Total read bytes from the system interface side
system.mem_ctrls1.bytesWrittenSys           280523904                       # Total written bytes from the system interface side
system.mem_ctrls1.servicedByWrQ                     7                       # Number of DRAM read bursts serviced by the write queue
system.mem_ctrls1.mergedWrBursts                    0                       # Number of DRAM write bursts merged with an existing one
system.mem_ctrls1.neitherReadNorWriteReqs            0                       # Number of requests that are neither read nor write
system.mem_ctrls1.perBankRdBursts::0           554774                       # Per bank write bursts
system.mem_ctrls1.perBankRdBursts::1           553773                       # Per bank write bursts
system.mem_ctrls1.perBankRdBursts::2           554304                       # Per bank write bursts
system.mem_ctrls1.perBankRdBursts::3           557077                       # Per bank write bursts
system.mem_ctrls1.perBankRdBursts::4           555879                       # Per bank write bursts
system.mem_ctrls1.perBankRdBursts::5           554856                       # Per bank write bursts
system.mem_ctrls1.perBankRdBursts::6           554751                       # Per bank write bursts
system.mem_ctrls1.perBankRdBursts::7           555349                       # Per bank write bursts
system.mem_ctrls1.perBankRdBursts::8           557279                       # Per bank write bursts
system.mem_ctrls1.perBankRdBursts::9           552827                       # Per bank write bursts
system.mem_ctrls1.perBankRdBursts::10          552427                       # Per bank write bursts
system.mem_ctrls1.perBankRdBursts::11          554772                       # Per bank write bursts
system.mem_ctrls1.perBankRdBursts::12          555779                       # Per bank write bursts
system.mem_ctrls1.perBankRdBursts::13          556142                       # Per bank write bursts
system.mem_ctrls1.perBankRdBursts::14          556060                       # Per bank write bursts
system.mem_ctrls1.perBankRdBursts::15          554819                       # Per bank write bursts
system.mem_ctrls1.perBankWrBursts::0           275254                       # Per bank write bursts
system.mem_ctrls1.perBankWrBursts::1           274057                       # Per bank write bursts
system.mem_ctrls1.perBankWrBursts::2           273263                       # Per bank write bursts
system.mem_ctrls1.perBankWrBursts::3           274259                       # Per bank write bursts
system.mem_ctrls1.perBankWrBursts::4           274217                       # Per bank write bursts
system.mem_ctrls1.perBankWrBursts::5           274017                       # Per bank write bursts
system.mem_ctrls1.perBankWrBursts::6           273932                       # Per bank write bursts
system.mem_ctrls1.perBankWrBursts::7           273344                       # Per bank write bursts
system.mem_ctrls1.perBankWrBursts::8           273318                       # Per bank write bursts
system.mem_ctrls1.perBankWrBursts::9           272772                       # Per bank write bursts
system.mem_ctrls1.perBankWrBursts::10          273862                       # Per bank write bursts
system.mem_ctrls1.perBankWrBursts::11          275340                       # Per bank write bursts
system.mem_ctrls1.perBankWrBursts::12          274218                       # Per bank write bursts
system.mem_ctrls1.perBankWrBursts::13          273008                       # Per bank write bursts
system.mem_ctrls1.perBankWrBursts::14          273373                       # Per bank write bursts
system.mem_ctrls1.perBankWrBursts::15          274931                       # Per bank write bursts
system.mem_ctrls1.numRdRetry                        0                       # Number of times read queue was full causing retry
system.mem_ctrls1.numWrRetry                        0                       # Number of times write queue was full causing retry
system.mem_ctrls1.totGap                 2676097108782                       # Total gap between requests
system.mem_ctrls1.readPktSize::0                    0                       # Read request sizes (log2)
system.mem_ctrls1.readPktSize::1                    0                       # Read request sizes (log2)
system.mem_ctrls1.readPktSize::2                    0                       # Read request sizes (log2)
system.mem_ctrls1.readPktSize::3                    0                       # Read request sizes (log2)
system.mem_ctrls1.readPktSize::4                    0                       # Read request sizes (log2)
system.mem_ctrls1.readPktSize::5                    0                       # Read request sizes (log2)
system.mem_ctrls1.readPktSize::6              8880875                       # Read request sizes (log2)
system.mem_ctrls1.writePktSize::0                   0                       # Write request sizes (log2)
system.mem_ctrls1.writePktSize::1                   0                       # Write request sizes (log2)
system.mem_ctrls1.writePktSize::2                   0                       # Write request sizes (log2)
system.mem_ctrls1.writePktSize::3                   0                       # Write request sizes (log2)
system.mem_ctrls1.writePktSize::4                   0                       # Write request sizes (log2)
system.mem_ctrls1.writePktSize::5                   0                       # Write request sizes (log2)
system.mem_ctrls1.writePktSize::6             4383186                       # Write request sizes (log2)
system.mem_ctrls1.rdQLenPdf::0                8408617                       # What read queue length does an incoming req see
system.mem_ctrls1.rdQLenPdf::1                 340088                       # What read queue length does an incoming req see
system.mem_ctrls1.rdQLenPdf::2                 112660                       # What read queue length does an incoming req see
system.mem_ctrls1.rdQLenPdf::3                  19503                       # What read queue length does an incoming req see
system.mem_ctrls1.rdQLenPdf::4                      0                       # What read queue length does an incoming req see
system.mem_ctrls1.rdQLenPdf::5                      0                       # What read queue length does an incoming req see
system.mem_ctrls1.rdQLenPdf::6                      0                       # What read queue length does an incoming req see
system.mem_ctrls1.rdQLenPdf::7                      0                       # What read queue length does an incoming req see
system.mem_ctrls1.rdQLenPdf::8                      0                       # What read queue length does an incoming req see
system.mem_ctrls1.rdQLenPdf::9                      0                       # What read queue length does an incoming req see
system.mem_ctrls1.rdQLenPdf::10                     0                       # What read queue length does an incoming req see
system.mem_ctrls1.rdQLenPdf::11                     0                       # What read queue length does an incoming req see
system.mem_ctrls1.rdQLenPdf::12                     0                       # What read queue length does an incoming req see
system.mem_ctrls1.rdQLenPdf::13                     0                       # What read queue length does an incoming req see
system.mem_ctrls1.rdQLenPdf::14                     0                       # What read queue length does an incoming req see
system.mem_ctrls1.rdQLenPdf::15                     0                       # What read queue length does an incoming req see
system.mem_ctrls1.rdQLenPdf::16                     0                       # What read queue length does an incoming req see
system.mem_ctrls1.rdQLenPdf::17                     0                       # What read queue length does an incoming req see
system.mem_ctrls1.rdQLenPdf::18                     0                       # What read queue length does an incoming req see
system.mem_ctrls1.rdQLenPdf::19                     0                       # What read queue length does an incoming req see
system.mem_ctrls1.rdQLenPdf::20                     0                       # What read queue length does an incoming req see
system.mem_ctrls1.rdQLenPdf::21                     0                       # What read queue length does an incoming req see
system.mem_ctrls1.rdQLenPdf::22                     0                       # What read queue length does an incoming req see
system.mem_ctrls1.rdQLenPdf::23                     0                       # What read queue length does an incoming req see
system.mem_ctrls1.rdQLenPdf::24                     0                       # What read queue length does an incoming req see
system.mem_ctrls1.rdQLenPdf::25                     0                       # What read queue length does an incoming req see
system.mem_ctrls1.rdQLenPdf::26                     0                       # What read queue length does an incoming req see
system.mem_ctrls1.rdQLenPdf::27                     0                       # What read queue length does an incoming req see
system.mem_ctrls1.rdQLenPdf::28                     0                       # What read queue length does an incoming req see
system.mem_ctrls1.rdQLenPdf::29                     0                       # What read queue length does an incoming req see
system.mem_ctrls1.rdQLenPdf::30                     0                       # What read queue length does an incoming req see
system.mem_ctrls1.rdQLenPdf::31                     0                       # What read queue length does an incoming req see
system.mem_ctrls1.wrQLenPdf::0                      2                       # What write queue length does an incoming req see
system.mem_ctrls1.wrQLenPdf::1                      2                       # What write queue length does an incoming req see
system.mem_ctrls1.wrQLenPdf::2                      2                       # What write queue length does an incoming req see
system.mem_ctrls1.wrQLenPdf::3                      2                       # What write queue length does an incoming req see
system.mem_ctrls1.wrQLenPdf::4                      2                       # What write queue length does an incoming req see
system.mem_ctrls1.wrQLenPdf::5                      2                       # What write queue length does an incoming req see
system.mem_ctrls1.wrQLenPdf::6                      2                       # What write queue length does an incoming req see
system.mem_ctrls1.wrQLenPdf::7                      2                       # What write queue length does an incoming req see
system.mem_ctrls1.wrQLenPdf::8                      2                       # What write queue length does an incoming req see
system.mem_ctrls1.wrQLenPdf::9                      2                       # What write queue length does an incoming req see
system.mem_ctrls1.wrQLenPdf::10                     2                       # What write queue length does an incoming req see
system.mem_ctrls1.wrQLenPdf::11                     2                       # What write queue length does an incoming req see
system.mem_ctrls1.wrQLenPdf::12                     2                       # What write queue length does an incoming req see
system.mem_ctrls1.wrQLenPdf::13                     2                       # What write queue length does an incoming req see
system.mem_ctrls1.wrQLenPdf::14                     2                       # What write queue length does an incoming req see
system.mem_ctrls1.wrQLenPdf::15                137615                       # What write queue length does an incoming req see
system.mem_ctrls1.wrQLenPdf::16                143911                       # What write queue length does an incoming req see
system.mem_ctrls1.wrQLenPdf::17                245991                       # What write queue length does an incoming req see
system.mem_ctrls1.wrQLenPdf::18                255378                       # What write queue length does an incoming req see
system.mem_ctrls1.wrQLenPdf::19                257050                       # What write queue length does an incoming req see
system.mem_ctrls1.wrQLenPdf::20                257028                       # What write queue length does an incoming req see
system.mem_ctrls1.wrQLenPdf::21                256945                       # What write queue length does an incoming req see
system.mem_ctrls1.wrQLenPdf::22                256966                       # What write queue length does an incoming req see
system.mem_ctrls1.wrQLenPdf::23                257069                       # What write queue length does an incoming req see
system.mem_ctrls1.wrQLenPdf::24                257105                       # What write queue length does an incoming req see
system.mem_ctrls1.wrQLenPdf::25                256827                       # What write queue length does an incoming req see
system.mem_ctrls1.wrQLenPdf::26                256825                       # What write queue length does an incoming req see
system.mem_ctrls1.wrQLenPdf::27                256888                       # What write queue length does an incoming req see
system.mem_ctrls1.wrQLenPdf::28                257667                       # What write queue length does an incoming req see
system.mem_ctrls1.wrQLenPdf::29                258107                       # What write queue length does an incoming req see
system.mem_ctrls1.wrQLenPdf::30                259481                       # What write queue length does an incoming req see
system.mem_ctrls1.wrQLenPdf::31                256143                       # What write queue length does an incoming req see
system.mem_ctrls1.wrQLenPdf::32                255798                       # What write queue length does an incoming req see
system.mem_ctrls1.wrQLenPdf::33                   298                       # What write queue length does an incoming req see
system.mem_ctrls1.wrQLenPdf::34                    45                       # What write queue length does an incoming req see
system.mem_ctrls1.wrQLenPdf::35                    14                       # What write queue length does an incoming req see
system.mem_ctrls1.wrQLenPdf::36                     4                       # What write queue length does an incoming req see
system.mem_ctrls1.wrQLenPdf::37                     1                       # What write queue length does an incoming req see
system.mem_ctrls1.wrQLenPdf::38                     0                       # What write queue length does an incoming req see
system.mem_ctrls1.wrQLenPdf::39                     0                       # What write queue length does an incoming req see
system.mem_ctrls1.wrQLenPdf::40                     0                       # What write queue length does an incoming req see
system.mem_ctrls1.wrQLenPdf::41                     0                       # What write queue length does an incoming req see
system.mem_ctrls1.wrQLenPdf::42                     0                       # What write queue length does an incoming req see
system.mem_ctrls1.wrQLenPdf::43                     0                       # What write queue length does an incoming req see
system.mem_ctrls1.wrQLenPdf::44                     0                       # What write queue length does an incoming req see
system.mem_ctrls1.wrQLenPdf::45                     0                       # What write queue length does an incoming req see
system.mem_ctrls1.wrQLenPdf::46                     0                       # What write queue length does an incoming req see
system.mem_ctrls1.wrQLenPdf::47                     0                       # What write queue length does an incoming req see
system.mem_ctrls1.wrQLenPdf::48                     0                       # What write queue length does an incoming req see
system.mem_ctrls1.wrQLenPdf::49                     0                       # What write queue length does an incoming req see
system.mem_ctrls1.wrQLenPdf::50                     0                       # What write queue length does an incoming req see
system.mem_ctrls1.wrQLenPdf::51                     0                       # What write queue length does an incoming req see
system.mem_ctrls1.wrQLenPdf::52                     0                       # What write queue length does an incoming req see
system.mem_ctrls1.wrQLenPdf::53                     0                       # What write queue length does an incoming req see
system.mem_ctrls1.wrQLenPdf::54                     0                       # What write queue length does an incoming req see
system.mem_ctrls1.wrQLenPdf::55                     0                       # What write queue length does an incoming req see
system.mem_ctrls1.wrQLenPdf::56                     0                       # What write queue length does an incoming req see
system.mem_ctrls1.wrQLenPdf::57                     0                       # What write queue length does an incoming req see
system.mem_ctrls1.wrQLenPdf::58                     0                       # What write queue length does an incoming req see
system.mem_ctrls1.wrQLenPdf::59                     0                       # What write queue length does an incoming req see
system.mem_ctrls1.wrQLenPdf::60                     0                       # What write queue length does an incoming req see
system.mem_ctrls1.wrQLenPdf::61                     0                       # What write queue length does an incoming req see
system.mem_ctrls1.wrQLenPdf::62                     0                       # What write queue length does an incoming req see
system.mem_ctrls1.wrQLenPdf::63                     0                       # What write queue length does an incoming req see
system.mem_ctrls1.bytesPerActivate::samples      8768419                       # Bytes accessed per row activation
system.mem_ctrls1.bytesPerActivate::mean    96.813089                       # Bytes accessed per row activation
system.mem_ctrls1.bytesPerActivate::gmean    84.731539                       # Bytes accessed per row activation
system.mem_ctrls1.bytesPerActivate::stdev    64.354401                       # Bytes accessed per row activation
system.mem_ctrls1.bytesPerActivate::0-127      6123247     69.83%     69.83% # Bytes accessed per row activation
system.mem_ctrls1.bytesPerActivate::128-255      2155620     24.58%     94.42% # Bytes accessed per row activation
system.mem_ctrls1.bytesPerActivate::256-383       421447      4.81%     99.22% # Bytes accessed per row activation
system.mem_ctrls1.bytesPerActivate::384-511        47028      0.54%     99.76% # Bytes accessed per row activation
system.mem_ctrls1.bytesPerActivate::512-639        13337      0.15%     99.91% # Bytes accessed per row activation
system.mem_ctrls1.bytesPerActivate::640-767         4436      0.05%     99.96% # Bytes accessed per row activation
system.mem_ctrls1.bytesPerActivate::768-895         1560      0.02%     99.98% # Bytes accessed per row activation
system.mem_ctrls1.bytesPerActivate::896-1023          606      0.01%     99.99% # Bytes accessed per row activation
system.mem_ctrls1.bytesPerActivate::1024-1151         1138      0.01%    100.00% # Bytes accessed per row activation
system.mem_ctrls1.bytesPerActivate::total      8768419                       # Bytes accessed per row activation
system.mem_ctrls1.rdPerTurnAround::samples       255546                       # Reads before turning the bus around for writes
system.mem_ctrls1.rdPerTurnAround::mean     34.752483                       # Reads before turning the bus around for writes
system.mem_ctrls1.rdPerTurnAround::stdev    56.175279                       # Reads before turning the bus around for writes
system.mem_ctrls1.rdPerTurnAround::0-1023       255544    100.00%    100.00% # Reads before turning the bus around for writes
system.mem_ctrls1.rdPerTurnAround::1024-2047            1      0.00%    100.00% # Reads before turning the bus around for writes
system.mem_ctrls1.rdPerTurnAround::27648-28671            1      0.00%    100.00% # Reads before turning the bus around for writes
system.mem_ctrls1.rdPerTurnAround::total       255546                       # Reads before turning the bus around for writes
system.mem_ctrls1.wrPerTurnAround::samples       255546                       # Writes before turning the bus around for reads
system.mem_ctrls1.wrPerTurnAround::mean     17.152157                       # Writes before turning the bus around for reads
system.mem_ctrls1.wrPerTurnAround::gmean    17.119024                       # Writes before turning the bus around for reads
system.mem_ctrls1.wrPerTurnAround::stdev     1.066181                       # Writes before turning the bus around for reads
system.mem_ctrls1.wrPerTurnAround::15               1      0.00%      0.00% # Writes before turning the bus around for reads
system.mem_ctrls1.wrPerTurnAround::16          113115     44.26%     44.26% # Writes before turning the bus around for reads
system.mem_ctrls1.wrPerTurnAround::17            3937      1.54%     45.81% # Writes before turning the bus around for reads
system.mem_ctrls1.wrPerTurnAround::18          126581     49.53%     95.34% # Writes before turning the bus around for reads
system.mem_ctrls1.wrPerTurnAround::19           10653      4.17%     99.51% # Writes before turning the bus around for reads
system.mem_ctrls1.wrPerTurnAround::20            1034      0.40%     99.91% # Writes before turning the bus around for reads
system.mem_ctrls1.wrPerTurnAround::21             169      0.07%     99.98% # Writes before turning the bus around for reads
system.mem_ctrls1.wrPerTurnAround::22              26      0.01%     99.99% # Writes before turning the bus around for reads
system.mem_ctrls1.wrPerTurnAround::23              15      0.01%     99.99% # Writes before turning the bus around for reads
system.mem_ctrls1.wrPerTurnAround::24               8      0.00%    100.00% # Writes before turning the bus around for reads
system.mem_ctrls1.wrPerTurnAround::25               5      0.00%    100.00% # Writes before turning the bus around for reads
system.mem_ctrls1.wrPerTurnAround::26               1      0.00%    100.00% # Writes before turning the bus around for reads
system.mem_ctrls1.wrPerTurnAround::27               1      0.00%    100.00% # Writes before turning the bus around for reads
system.mem_ctrls1.wrPerTurnAround::total       255546                       # Writes before turning the bus around for reads
system.mem_ctrls1.totQLat                236206765632                       # Total ticks spent queuing
system.mem_ctrls1.totMemAccLat           402723040632                       # Total ticks spent from burst creation until serviced by the DRAM
system.mem_ctrls1.totBusLat               44404340000                       # Total ticks spent in databus transfers
system.mem_ctrls1.avgQLat                    26597.26                       # Average queueing delay per DRAM burst
system.mem_ctrls1.avgBusLat                   5000.00                       # Average bus latency per DRAM burst
system.mem_ctrls1.avgMemAccLat               45347.26                       # Average memory access latency per DRAM burst
system.mem_ctrls1.avgRdBW                      212.39                       # Average DRAM read bandwidth in MiByte/s
system.mem_ctrls1.avgWrBW                      104.83                       # Average achieved write bandwidth in MiByte/s
system.mem_ctrls1.avgRdBWSys                   212.39                       # Average system read bandwidth in MiByte/s
system.mem_ctrls1.avgWrBWSys                   104.83                       # Average system write bandwidth in MiByte/s
system.mem_ctrls1.peakBW                     12800.00                       # Theoretical peak bandwidth in MiByte/s
system.mem_ctrls1.busUtil                        2.48                       # Data bus utilization in percentage
system.mem_ctrls1.busUtilRead                    1.66                       # Data bus utilization in percentage for reads
system.mem_ctrls1.busUtilWrite                   0.82                       # Data bus utilization in percentage for writes
system.mem_ctrls1.avgRdQLen                      1.03                       # Average read queue length when enqueuing
system.mem_ctrls1.avgWrQLen                     24.82                       # Average write queue length when enqueuing
system.mem_ctrls1.readRowHits                 3215150                       # Number of row buffer hits during reads
system.mem_ctrls1.writeRowHits                1280458                       # Number of row buffer hits during writes
system.mem_ctrls1.readRowHitRate                36.20                       # Row buffer hit rate for reads
system.mem_ctrls1.writeRowHitRate               29.21                       # Row buffer hit rate for writes
system.mem_ctrls1.avgGap                    201755.49                       # Average gap between requests
system.mem_ctrls1.pageHitRate                   33.89                       # Row buffer hit rate, read and write combined
system.mem_ctrls1_0.actEnergy             31280961180                       # Energy for activate commands per rank (pJ)
system.mem_ctrls1_0.preEnergy             16626213780                       # Energy for precharge commands per rank (pJ)
system.mem_ctrls1_0.readEnergy            31707047820                       # Energy for read commands per rank (pJ)
system.mem_ctrls1_0.writeEnergy           11444030460                       # Energy for write commands per rank (pJ)
system.mem_ctrls1_0.refreshEnergy        210569517600.000061                       # Energy for refresh commands per rank (pJ)
system.mem_ctrls1_0.actBackEnergy        195353082990                       # Energy for active background per rank (pJ)
system.mem_ctrls1_0.preBackEnergy          5492686560                       # Energy for precharge background per rank (pJ)
system.mem_ctrls1_0.actPowerDownEnergy   909091903320                       # Energy for active power-down per rank (pJ)
system.mem_ctrls1_0.prePowerDownEnergy    75429913440                       # Energy for precharge power-down per rank (pJ)
system.mem_ctrls1_0.selfRefreshEnergy     13049786325                       # Energy for self refresh per rank (pJ)
system.mem_ctrls1_0.totalEnergy          1500064141065                       # Total energy per rank (pJ)
system.mem_ctrls1_0.averagePower           560.541700                       # Core power per rank (mW)
system.mem_ctrls1_0.totalIdleTime        2233338218591                       # Total Idle time Per DRAM Rank
system.mem_ctrls1_0.memoryStateTime::IDLE   3237573481                       # Time in different power states
system.mem_ctrls1_0.memoryStateTime::REF  89104054000                       # Time in different power states
system.mem_ctrls1_0.memoryStateTime::SREF  43290643437                       # Time in different power states
system.mem_ctrls1_0.memoryStateTime::PRE_PDN 196431649086                       # Time in different power states
system.mem_ctrls1_0.memoryStateTime::ACT 350417424093                       # Time in different power states
system.mem_ctrls1_0.memoryStateTime::ACT_PDN 1993615968814                       # Time in different power states
system.mem_ctrls1_1.actEnergy             31325593320                       # Energy for activate commands per rank (pJ)
system.mem_ctrls1_1.preEnergy             16649936325                       # Energy for precharge commands per rank (pJ)
system.mem_ctrls1_1.readEnergy            31702349700                       # Energy for read commands per rank (pJ)
system.mem_ctrls1_1.writeEnergy           11436090840                       # Energy for write commands per rank (pJ)
system.mem_ctrls1_1.refreshEnergy        210198275040.000061                       # Energy for refresh commands per rank (pJ)
system.mem_ctrls1_1.actBackEnergy        194331275910                       # Energy for active background per rank (pJ)
system.mem_ctrls1_1.preBackEnergy          5478199680                       # Energy for precharge background per rank (pJ)
system.mem_ctrls1_1.actPowerDownEnergy   910532564640                       # Energy for active power-down per rank (pJ)
system.mem_ctrls1_1.prePowerDownEnergy    74422176000                       # Energy for precharge power-down per rank (pJ)
system.mem_ctrls1_1.selfRefreshEnergy     13242295545                       # Energy for self refresh per rank (pJ)
system.mem_ctrls1_1.totalEnergy          1499334794940                       # Total energy per rank (pJ)
system.mem_ctrls1_1.averagePower           560.269160                       # Core power per rank (mW)
system.mem_ctrls1_1.totalIdleTime        2235622992988                       # Total Idle time Per DRAM Rank
system.mem_ctrls1_1.memoryStateTime::IDLE   3168387929                       # Time in different power states
system.mem_ctrls1_1.memoryStateTime::REF  88944314000                       # Time in different power states
system.mem_ctrls1_1.memoryStateTime::SREF  45040681176                       # Time in different power states
system.mem_ctrls1_1.memoryStateTime::PRE_PDN 193805281914                       # Time in different power states
system.mem_ctrls1_1.memoryStateTime::ACT 348361617994                       # Time in different power states
system.mem_ctrls1_1.memoryStateTime::ACT_PDN 1996777029898                       # Time in different power states
system.pwrStateResidencyTicks::UNDEFINED 146153085629985                       # Cumulative time (in ticks) in various power states
system.cpu.branchPred.lookups                       0                       # Number of BP lookups
system.cpu.branchPred.condPredicted                 0                       # Number of conditional branches predicted
system.cpu.branchPred.condIncorrect                 0                       # Number of conditional branches incorrect
system.cpu.branchPred.BTBLookups                    0                       # Number of BTB lookups
system.cpu.branchPred.BTBHits                       0                       # Number of BTB hits
system.cpu.branchPred.BTBCorrect                    0                       # Number of correct BTB predictions (this stat may not work properly.
system.cpu.branchPred.BTBHitPct                   nan                       # BTB Hit Percentage
system.cpu.branchPred.usedRAS                       0                       # Number of times the RAS was used to get a target.
system.cpu.branchPred.RASInCorrect                  0                       # Number of incorrect RAS predictions.
system.cpu.branchPred.indirectLookups               0                       # Number of indirect predictor lookups.
system.cpu.branchPred.indirectHits                  0                       # Number of indirect target hits.
system.cpu.branchPred.indirectMisses                0                       # Number of indirect misses.
system.cpu.branchPredindirectMispredicted            0                       # Number of mispredicted indirect branches.
system.cpu_voltage_domain.voltage                   1                       # Voltage in Volts
system.cpu_clk_domain.clock                       333                       # Clock period in ticks
system.cpu.dtb.fetch_hits                           0                       # ITB hits
system.cpu.dtb.fetch_misses                         0                       # ITB misses
system.cpu.dtb.fetch_acv                            0                       # ITB acv
system.cpu.dtb.fetch_accesses                       0                       # ITB accesses
system.cpu.dtb.read_hits                           13                       # DTB read hits
system.cpu.dtb.read_misses                          0                       # DTB read misses
system.cpu.dtb.read_acv                             0                       # DTB read access violations
system.cpu.dtb.read_accesses                       13                       # DTB read accesses
system.cpu.dtb.write_hits                           0                       # DTB write hits
system.cpu.dtb.write_misses                         0                       # DTB write misses
system.cpu.dtb.write_acv                            0                       # DTB write access violations
system.cpu.dtb.write_accesses                       0                       # DTB write accesses
system.cpu.dtb.data_hits                           13                       # DTB hits
system.cpu.dtb.data_misses                          0                       # DTB misses
system.cpu.dtb.data_acv                             0                       # DTB access violations
system.cpu.dtb.data_accesses                       13                       # DTB accesses
system.cpu.itb.fetch_hits                           4                       # ITB hits
system.cpu.itb.fetch_misses                         0                       # ITB misses
system.cpu.itb.fetch_acv                            0                       # ITB acv
system.cpu.itb.fetch_accesses                       4                       # ITB accesses
system.cpu.itb.read_hits                            0                       # DTB read hits
system.cpu.itb.read_misses                          0                       # DTB read misses
system.cpu.itb.read_acv                             0                       # DTB read access violations
system.cpu.itb.read_accesses                        0                       # DTB read accesses
system.cpu.itb.write_hits                           0                       # DTB write hits
system.cpu.itb.write_misses                         0                       # DTB write misses
system.cpu.itb.write_acv                            0                       # DTB write access violations
system.cpu.itb.write_accesses                       0                       # DTB write accesses
system.cpu.itb.data_hits                            0                       # DTB hits
system.cpu.itb.data_misses                          0                       # DTB misses
system.cpu.itb.data_acv                             0                       # DTB access violations
system.cpu.itb.data_accesses                        0                       # DTB accesses
system.cpu.workload.num_syscalls                    0                       # Number of system calls
system.cpu.pwrStateResidencyTicks::ON    2676097312911                       # Cumulative time (in ticks) in various power states
system.cpu.numCycles                              582                       # number of cpu cycles simulated
system.cpu.numWorkItemsStarted                      0                       # number of work items this cpu started
system.cpu.numWorkItemsCompleted                    0                       # number of work items this cpu completed
system.cpu.fetch.icacheStallCycles                 49                       # Number of cycles fetch is stalled on an Icache miss
system.cpu.fetch.Insts                             23                       # Number of instructions fetch has processed
system.cpu.fetch.Cycles                             3                       # Number of cycles fetch has run and was not squashing or blocked
system.cpu.fetch.SquashCycles                       3                       # Number of cycles fetch has spent squashing
system.cpu.fetch.PendingDrainCycles                 7                       # Number of cycles fetch has spent waiting on pipes to drain
system.cpu.fetch.CacheLines                         4                       # Number of cache lines fetched
[...]
system.switch_cpus_1.iq.fu_busy_rate         0.055141                       # FU busy rate (busy events/executed inst)
system.switch_cpus_1.iq.int_inst_queue_reads    602515656                       # Number of integer instruction queue reads
system.switch_cpus_1.iq.int_inst_queue_writes     79841998                       # Number of integer instruction queue writes
system.switch_cpus_1.iq.int_inst_queue_wakeup_accesses     72911041                       # Number of integer instruction queue wakeup accesses
system.switch_cpus_1.iq.fp_inst_queue_reads    313231488                       # Number of floating instruction queue reads
system.switch_cpus_1.iq.fp_inst_queue_writes    167481966                       # Number of floating instruction queue writes
system.switch_cpus_1.iq.fp_inst_queue_wakeup_accesses    142522441                       # Number of floating instruction queue wakeup accesses
system.switch_cpus_1.iq.int_alu_accesses     81283656                       # Number of integer alu accesses
system.switch_cpus_1.iq.fp_alu_accesses     160132807                       # Number of floating point alu accesses
system.switch_cpus_1.iew.lsq.thread0.forwLoads       562367                       # Number of loads that had data forwarded from stores
system.switch_cpus_1.iew.lsq.thread0.invAddrLoads            0                       # Number of loads ignored due to an invalid address
system.switch_cpus_1.iew.lsq.thread0.squashedLoads      9699123                       # Number of loads squashed
system.switch_cpus_1.iew.lsq.thread0.ignoredResponses           37                       # Number of memory responses ignored because the instruction is squashed
system.switch_cpus_1.iew.lsq.thread0.memOrderViolation          511                       # Number of memory ordering violations
system.switch_cpus_1.iew.lsq.thread0.squashedStores      1086749                       # Number of stores squashed
system.switch_cpus_1.iew.lsq.thread0.invAddrSwpfs            0                       # Number of software prefetches ignored due to an invalid address
system.switch_cpus_1.iew.lsq.thread0.blockedLoads            0                       # Number of blocked loads due to partial load-store forwarding
system.switch_cpus_1.iew.lsq.thread0.rescheduledLoads            0                       # Number of loads that were rescheduled
system.switch_cpus_1.iew.lsq.thread0.cacheBlocked     11975654                       # Number of times an access to memory failed due to the cache being blocked
system.switch_cpus_1.iew.iewIdleCycles              0                       # Number of cycles IEW is idle
system.switch_cpus_1.iew.iewSquashCycles       306911                       # Number of cycles IEW is squashing
system.switch_cpus_1.iew.iewBlockCycles      10168382                       # Number of cycles IEW is blocking
system.switch_cpus_1.iew.iewUnblockCycles    130570472                       # Number of cycles IEW is unblocking
system.switch_cpus_1.iew.iewDispatchedInsts    223847800                       # Number of instructions dispatched to IQ
system.switch_cpus_1.iew.iewDispSquashedInsts         1634                       # Number of squashed instructions skipped by dispatch
system.switch_cpus_1.iew.iewDispLoadInsts     93114731                       # Number of dispatched load instructions
system.switch_cpus_1.iew.iewDispStoreInsts     11679196                       # Number of dispatched store instructions
system.switch_cpus_1.iew.iewDispNonSpecInsts            0                       # Number of dispatched non-speculative instructions
system.switch_cpus_1.iew.iewIQFullEvents        35953                       # Number of times the IQ has become full, causing a stall
system.switch_cpus_1.iew.iewLSQFullEvents    130512259                       # Number of times the LSQ has become full, causing a stall
system.switch_cpus_1.iew.memOrderViolationEvents          511                       # Number of memory order violations
system.switch_cpus_1.iew.predictedTakenIncorrect         3860                       # Number of branches that were predicted taken incorrectly
system.switch_cpus_1.iew.predictedNotTakenIncorrect          460                       # Number of branches that were predicted not taken incorrectly
system.switch_cpus_1.iew.branchMispredicts         4320                       # Number of branch mispredicts detected at execute
system.switch_cpus_1.iew.iewExecutedInsts    228719895                       # Number of executed instructions
system.switch_cpus_1.iew.iewExecLoadInsts    104318718                       # Number of load instructions executed
system.switch_cpus_1.iew.iewExecSquashedInsts        80363                       # Number of squashed instructions skipped in execute
system.switch_cpus_1.iew.exec_swp                   0                       # number of swp insts executed
system.switch_cpus_1.iew.exec_nop              186040                       # number of nop insts executed
system.switch_cpus_1.iew.exec_refs          115038129                       # number of memory reference insts executed
system.switch_cpus_1.iew.exec_branches        1994200                       # Number of branches executed
system.switch_cpus_1.iew.exec_stores         10719411                       # Number of stores executed
system.switch_cpus_1.iew.exec_rate           0.513720                       # Inst execution rate
system.switch_cpus_1.iew.wb_sent            216507105                       # cumulative count of insts sent to commit
system.switch_cpus_1.iew.wb_count           215433482                       # cumulative count of insts written-back
system.switch_cpus_1.iew.wb_producers       143030623                       # num instructions producing a value
system.switch_cpus_1.iew.wb_consumers       149909192                       # num instructions consuming a value
system.switch_cpus_1.iew.wb_rate             0.483878                       # insts written-back per cycle
system.switch_cpus_1.iew.wb_fanout           0.954115                       # average fanout of values written-back
system.switch_cpus_1.commit.commitSquashedInsts     22570979                       # The number of squashed insts skipped by commit
system.switch_cpus_1.commit.branchMispredicts         4272                       # The number of times a branch was mispredicted
system.switch_cpus_1.commit.committed_per_cycle::samples    442225171                       # Number of insts commited each cycle
system.switch_cpus_1.commit.committed_per_cycle::mean     0.452678                       # Number of insts commited each cycle
system.switch_cpus_1.commit.committed_per_cycle::stdev     1.677897                       # Number of insts commited each cycle
system.switch_cpus_1.commit.committed_per_cycle::underflows            0      0.00%      0.00% # Number of insts commited each cycle
system.switch_cpus_1.commit.committed_per_cycle::0    399087004     90.25%     90.25% # Number of insts commited each cycle
system.switch_cpus_1.commit.committed_per_cycle::1     12539501      2.84%     93.08% # Number of insts commited each cycle
system.switch_cpus_1.commit.committed_per_cycle::2      4288937      0.97%     94.05% # Number of insts commited each cycle
system.switch_cpus_1.commit.committed_per_cycle::3      2662329      0.60%     94.65% # Number of insts commited each cycle
system.switch_cpus_1.commit.committed_per_cycle::4      2254516      0.51%     95.16% # Number of insts commited each cycle
system.switch_cpus_1.commit.committed_per_cycle::5      1604248      0.36%     95.53% # Number of insts commited each cycle
system.switch_cpus_1.commit.committed_per_cycle::6      1666803      0.38%     95.90% # Number of insts commited each cycle
system.switch_cpus_1.commit.committed_per_cycle::7       933633      0.21%     96.11% # Number of insts commited each cycle
system.switch_cpus_1.commit.committed_per_cycle::8     17188200      3.89%    100.00% # Number of insts commited each cycle
system.switch_cpus_1.commit.committed_per_cycle::overflows            0      0.00%    100.00% # Number of insts commited each cycle
system.switch_cpus_1.commit.committed_per_cycle::min_value            0                       # Number of insts commited each cycle
system.switch_cpus_1.commit.committed_per_cycle::max_value            8                       # Number of insts commited each cycle
system.switch_cpus_1.commit.committed_per_cycle::total    442225171                       # Number of insts commited each cycle
system.switch_cpus_1.commit.committedInsts    200185515                       # Number of instructions committed
system.switch_cpus_1.commit.committedOps    200185515                       # Number of ops (including micro ops) committed
system.switch_cpus_1.commit.swp_count               0                       # Number of s/w prefetches committed
system.switch_cpus_1.commit.refs             94008030                       # Number of memory references committed
system.switch_cpus_1.commit.loads            83415586                       # Number of loads committed
system.switch_cpus_1.commit.membars                 0                       # Number of memory barriers committed
system.switch_cpus_1.commit.branches          1780705                       # Number of branches committed
system.switch_cpus_1.commit.fp_insts        133556284                       # Number of committed floating point instructions.
system.switch_cpus_1.commit.int_insts       133992906                       # Number of committed integer instructions.
system.switch_cpus_1.commit.function_calls            0                       # Number of function calls committed.
system.switch_cpus_1.commit.op_class_0::No_OpClass       185513      0.09%      0.09% # Class of committed instruction
system.switch_cpus_1.commit.op_class_0::IntAlu     39964775     19.96%     20.06% # Class of committed instruction
system.switch_cpus_1.commit.op_class_0::IntMult        96303      0.05%     20.10% # Class of committed instruction
system.switch_cpus_1.commit.op_class_0::IntDiv            0      0.00%     20.10% # Class of committed instruction
system.switch_cpus_1.commit.op_class_0::FloatAdd     26372358     13.17%     33.28% # Class of committed instruction
system.switch_cpus_1.commit.op_class_0::FloatCmp            0      0.00%     33.28% # Class of committed instruction
system.switch_cpus_1.commit.op_class_0::FloatCvt            0      0.00%     33.28% # Class of committed instruction
system.switch_cpus_1.commit.op_class_0::FloatMult     39558536     19.76%     53.04% # Class of committed instruction
system.switch_cpus_1.commit.op_class_0::FloatMultAcc            0      0.00%     53.04% # Class of committed instruction
system.switch_cpus_1.commit.op_class_0::FloatDiv            0      0.00%     53.04% # Class of committed instruction
system.switch_cpus_1.commit.op_class_0::FloatMisc            0      0.00%     53.04% # Class of committed instruction
system.switch_cpus_1.commit.op_class_0::FloatSqrt            0      0.00%     53.04% # Class of committed instruction
system.switch_cpus_1.commit.op_class_0::SimdAdd            0      0.00%     53.04% # Class of committed instruction
system.switch_cpus_1.commit.op_class_0::SimdAddAcc            0      0.00%     53.04% # Class of committed instruction
system.switch_cpus_1.commit.op_class_0::SimdAlu            0      0.00%     53.04% # Class of committed instruction
system.switch_cpus_1.commit.op_class_0::SimdCmp            0      0.00%     53.04% # Class of committed instruction
system.switch_cpus_1.commit.op_class_0::SimdCvt            0      0.00%     53.04% # Class of committed instruction
system.switch_cpus_1.commit.op_class_0::SimdMisc            0      0.00%     53.04% # Class of committed instruction
system.switch_cpus_1.commit.op_class_0::SimdMult            0      0.00%     53.04% # Class of committed instruction
system.switch_cpus_1.commit.op_class_0::SimdMultAcc            0      0.00%     53.04% # Class of committed instruction
system.switch_cpus_1.commit.op_class_0::SimdShift            0      0.00%     53.04% # Class of committed instruction
system.switch_cpus_1.commit.op_class_0::SimdShiftAcc            0      0.00%     53.04% # Class of committed instruction
system.switch_cpus_1.commit.op_class_0::SimdSqrt            0      0.00%     53.04% # Class of committed instruction
system.switch_cpus_1.commit.op_class_0::SimdFloatAdd            0      0.00%     53.04% # Class of committed instruction
system.switch_cpus_1.commit.op_class_0::SimdFloatAlu            0      0.00%     53.04% # Class of committed instruction
system.switch_cpus_1.commit.op_class_0::SimdFloatCmp            0      0.00%     53.04% # Class of committed instruction
system.switch_cpus_1.commit.op_class_0::SimdFloatCvt            0      0.00%     53.04% # Class of committed instruction
system.switch_cpus_1.commit.op_class_0::SimdFloatDiv            0      0.00%     53.04% # Class of committed instruction
system.switch_cpus_1.commit.op_class_0::SimdFloatMisc            0      0.00%     53.04% # Class of committed instruction
system.switch_cpus_1.commit.op_class_0::SimdFloatMult            0      0.00%     53.04% # Class of committed instruction
system.switch_cpus_1.commit.op_class_0::SimdFloatMultAcc            0      0.00%     53.04% # Class of committed instruction
system.switch_cpus_1.commit.op_class_0::SimdFloatSqrt            0      0.00%     53.04% # Class of committed instruction
system.switch_cpus_1.commit.op_class_0::MemRead     24580982     12.28%     65.32% # Class of committed instruction
system.switch_cpus_1.commit.op_class_0::MemWrite      1801658      0.90%     66.22% # Class of committed instruction
system.switch_cpus_1.commit.op_class_0::FloatMemRead     58834604     29.39%     95.61% # Class of committed instruction
system.switch_cpus_1.commit.op_class_0::FloatMemWrite      8790786      4.39%    100.00% # Class of committed instruction
system.switch_cpus_1.commit.op_class_0::IprAccess            0      0.00%    100.00% # Class of committed instruction
system.switch_cpus_1.commit.op_class_0::InstPrefetch            0      0.00%    100.00% # Class of committed instruction
system.switch_cpus_1.commit.op_class_0::total    200185515                       # Class of committed instruction
system.switch_cpus_1.commit.bw_lim_events     17188200                       # number cycles where commit BW limit reached
system.switch_cpus_1.rob.rob_reads          643864592                       # The number of ROB reads
system.switch_cpus_1.rob.rob_writes         448471388                       # The number of ROB writes
system.switch_cpus_1.timesIdled                   374                       # Number of times that the entire CPU went into an idle state and unscheduled itself
system.switch_cpus_1.idleCycles                 39514                       # Total number of cycles that the CPU has spent unscheduled due to idling
system.switch_cpus_1.committedInsts         200000002                       # Number of Instructions Simulated
system.switch_cpus_1.committedOps           200000002                       # Number of Ops (including micro ops) Simulated
system.switch_cpus_1.cpi                     2.226115                       # CPI: Cycles Per Instruction
system.switch_cpus_1.cpi_total               2.226115                       # CPI: Total CPI of All Threads
system.switch_cpus_1.ipc                     0.449213                       # IPC: Instructions Per Cycle
system.switch_cpus_1.ipc_total               0.449213                       # IPC: Total IPC of All Threads
system.switch_cpus_1.int_regfile_reads      181607911                       # number of integer regfile reads
system.switch_cpus_1.int_regfile_writes      69113055                       # number of integer regfile writes
system.switch_cpus_1.fp_regfile_reads       147034440                       # number of floating regfile reads
system.switch_cpus_1.fp_regfile_writes      133619390                       # number of floating regfile writes
system.tol3bus.snoop_filter.tot_requests     39183925                       # Total number of requests made to the snoop filter.
system.tol3bus.snoop_filter.hit_single_requests     19589632                       # Number of requests hitting in the snoop filter with a single holder of the requested data.
system.tol3bus.snoop_filter.hit_multi_requests            0                       # Number of requests hitting in the snoop filter with multiple (>1) holders of the requested data.
system.tol3bus.snoop_filter.tot_snoops        1393962                       # Total number of snoops made to the snoop filter.
system.tol3bus.snoop_filter.hit_single_snoops      1393962                       # Number of snoops hitting in the snoop filter with a single holder of the requested data.
system.tol3bus.snoop_filter.hit_multi_snoops            0                       # Number of snoops hitting in the snoop filter with multiple (>1) holders of the requested data.
system.tol3bus.pwrStateResidencyTicks::UNDEFINED 146153085629985                       # Cumulative time (in ticks) in various power states
system.tol3bus.trans_dist::ReadResp          19456441                       # Transaction distribution
system.tol3bus.trans_dist::WritebackDirty     17801290                       # Transaction distribution
system.tol3bus.trans_dist::CleanEvict        20291182                       # Transaction distribution
system.tol3bus.trans_dist::UpgradeReq               5                       # Transaction distribution
system.tol3bus.trans_dist::UpgradeResp              5                       # Transaction distribution
system.tol3bus.trans_dist::ReadExReq           137852                       # Transaction distribution
system.tol3bus.trans_dist::ReadExResp          137852                       # Transaction distribution
system.tol3bus.trans_dist::ReadSharedReq     19456441                       # Transaction distribution
system.tol3bus.pkt_count_system.cpu.l2.mem_side::system.l3.cpu_side     58778223                       # Packet count per connected master and slave (bytes)
system.tol3bus.pkt_size_system.cpu.l2.mem_side::system.l3.cpu_side   1832257792                       # Cumulative packet size per connected master and slave (bytes)
system.tol3bus.snoops                        18502845                       # Total snoops (count)
system.tol3bus.snoopTraffic                 561059520                       # Total snoop traffic (bytes)
system.tol3bus.snoop_fanout::samples         38097143                       # Request fanout histogram
system.tol3bus.snoop_fanout::mean            0.036590                       # Request fanout histogram
system.tol3bus.snoop_fanout::stdev           0.187752                       # Request fanout histogram
system.tol3bus.snoop_fanout::underflows             0      0.00%      0.00% # Request fanout histogram
system.tol3bus.snoop_fanout::0               36703181     96.34%     96.34% # Request fanout histogram
system.tol3bus.snoop_fanout::1                1393962      3.66%    100.00% # Request fanout histogram
system.tol3bus.snoop_fanout::overflows              0      0.00%    100.00% # Request fanout histogram
system.tol3bus.snoop_fanout::min_value              0                       # Request fanout histogram
system.tol3bus.snoop_fanout::max_value              1                       # Request fanout histogram
system.tol3bus.snoop_fanout::total           38097143                       # Request fanout histogram
system.tol3bus.reqLayer0.occupancy        16056813780                       # Layer occupancy (ticks)
system.tol3bus.reqLayer0.utilization              0.6                       # Layer utilization (%)
system.tol3bus.respLayer0.occupancy       13049800803                       # Layer occupancy (ticks)
system.tol3bus.respLayer0.utilization             0.5                       # Layer utilization (%)

---------- End Simulation Statistics   ----------
