
---------- Begin Simulation Statistics ----------
sim_seconds                                  3.025611                       # Number of seconds simulated
sim_ticks                                3025610853174                       # Number of ticks simulated
final_tick                               146502599170248                       # Number of ticks from beginning of simulation (restored from checkpoints and never reset)
sim_freq                                 1000000000000                       # Frequency of simulated ticks
host_inst_rate                                 257801                       # Simulator instruction rate (inst/s)
host_op_rate                                   257801                       # Simulator op (including micro ops) rate (op/s)
host_tick_rate                              650004867                       # Simulator tick rate (ticks/s)
host_mem_usage                                2541896                       # Number of bytes of host memory used
host_seconds                                  4654.75                       # Real time elapsed on the host
sim_insts                                  1200000006                       # Number of instructions simulated
sim_ops                                    1200000006                       # Number of ops (including micro ops) simulated
system.voltage_domain.voltage                       1                       # Voltage in Volts
system.clk_domain.clock                          1000                       # Clock period in ticks
system.mem_ctrls0.pwrStateResidencyTicks::UNDEFINED 146502599170248                       # Cumulative time (in ticks) in various power states
system.mem_ctrls0.bytes_read::cpu.inst            128                       # Number of bytes read from this memory
system.mem_ctrls0.bytes_read::cpu.data            256                       # Number of bytes read from this memory
system.mem_ctrls0.bytes_read::switch_cpus.inst        20864                       # Number of bytes read from this memory
system.mem_ctrls0.bytes_read::switch_cpus.data    452884992                       # Number of bytes read from this memory
system.mem_ctrls0.bytes_read::switch_cpus_1.inst         6720                       # Number of bytes read from this memory
system.mem_ctrls0.bytes_read::switch_cpus_1.data     84720128                       # Number of bytes read from this memory
system.mem_ctrls0.bytes_read::total         537633088                       # Number of bytes read from this memory
system.mem_ctrls0.bytes_inst_read::cpu.inst          128                       # Number of instructions bytes read from this memory
system.mem_ctrls0.bytes_inst_read::switch_cpus.inst        20864                       # Number of instructions bytes read from this memory
system.mem_ctrls0.bytes_inst_read::switch_cpus_1.inst         6720                       # Number of instructions bytes read from this memory
system.mem_ctrls0.bytes_inst_read::total        27712                       # Number of instructions bytes read from this memory
system.mem_ctrls0.bytes_written::writebacks    280608320                       # Number of bytes written to this memory
system.mem_ctrls0.bytes_written::total      280608320                       # Number of bytes written to this memory
system.mem_ctrls0.num_reads::cpu.inst               2                       # Number of read requests responded to by this memory
system.mem_ctrls0.num_reads::cpu.data               4                       # Number of read requests responded to by this memory
system.mem_ctrls0.num_reads::switch_cpus.inst          326                       # Number of read requests responded to by this memory
system.mem_ctrls0.num_reads::switch_cpus.data      7076328                       # Number of read requests responded to by this memory
system.mem_ctrls0.num_reads::switch_cpus_1.inst          105                       # Number of read requests responded to by this memory
system.mem_ctrls0.num_reads::switch_cpus_1.data      1323752                       # Number of read requests responded to by this memory
system.mem_ctrls0.num_reads::total            8400517                       # Number of read requests responded to by this memory
system.mem_ctrls0.num_writes::writebacks      4384505                       # Number of write requests responded to by this memory
system.mem_ctrls0.num_writes::total           4384505                       # Number of write requests responded to by this memory
system.mem_ctrls0.bw_read::cpu.inst                42                       # Total read bandwidth from this memory (bytes/s)
system.mem_ctrls0.bw_read::cpu.data                85                       # Total read bandwidth from this memory (bytes/s)
system.mem_ctrls0.bw_read::switch_cpus.inst         6896                       # Total read bandwidth from this memory (bytes/s)
system.mem_ctrls0.bw_read::switch_cpus.data    149683821                       # Total read bandwidth from this memory (bytes/s)
system.mem_ctrls0.bw_read::switch_cpus_1.inst         2221                       # Total read bandwidth from this memory (bytes/s)
system.mem_ctrls0.bw_read::switch_cpus_1.data     28001000                       # Total read bandwidth from this memory (bytes/s)
system.mem_ctrls0.bw_read::total            177694064                       # Total read bandwidth from this memory (bytes/s)
system.mem_ctrls0.bw_inst_read::cpu.inst           42                       # Instruction read bandwidth from this memory (bytes/s)
system.mem_ctrls0.bw_inst_read::switch_cpus.inst         6896                       # Instruction read bandwidth from this memory (bytes/s)
system.mem_ctrls0.bw_inst_read::switch_cpus_1.inst         2221                       # Instruction read bandwidth from this memory (bytes/s)
system.mem_ctrls0.bw_inst_read::total            9159                       # Instruction read bandwidth from this memory (bytes/s)
system.mem_ctrls0.bw_write::writebacks       92744353                       # Write bandwidth from this memory (bytes/s)
system.mem_ctrls0.bw_write::total            92744353                       # Write bandwidth from this memory (bytes/s)
system.mem_ctrls0.bw_total::writebacks       92744353                       # Total bandwidth to/from this memory (bytes/s)
system.mem_ctrls0.bw_total::cpu.inst               42                       # Total bandwidth to/from this memory (bytes/s)
system.mem_ctrls0.bw_total::cpu.data               85                       # Total bandwidth to/from this memory (bytes/s)
system.mem_ctrls0.bw_total::switch_cpus.inst         6896                       # Total bandwidth to/from this memory (bytes/s)
system.mem_ctrls0.bw_total::switch_cpus.data    149683821                       # Total bandwidth to/from this memory (bytes/s)
system.mem_ctrls0.bw_total::switch_cpus_1.inst         2221                       # Total bandwidth to/from this memory (bytes/s)
system.mem_ctrls0.bw_total::switch_cpus_1.data     28001000                       # Total bandwidth to/from this memory (bytes/s)
system.mem_ctrls0.bw_total::total           270438416                       # Total bandwidth to/from this memory (bytes/s)
system.mem_ctrls0.readReqs                    8400517                       # Number of read requests accepted
system.mem_ctrls0.writeReqs                   4384505                       # Number of write requests accepted
system.mem_ctrls0.readBursts                  8400517                       # Number of DRAM read bursts, including those serviced by the write queue
system.mem_ctrls0.writeBursts                 4384505                       # Number of DRAM write bursts, including those merged in the write queue
system.mem_ctrls0.bytesReadDRAM             537631744                       # Total number of bytes read from DRAM
system.mem_ctrls0.bytesReadWrQ                   1344                       # Total number of bytes read from write queue
system.mem_ctrls0.bytesWritten              280606784                       # Total number of bytes written to DRAM
system.mem_ctrls0.bytesReadSys              537633088                       # Total read bytes from the system interface side
system.mem_ctrls0.bytesWrittenSys           280608320                       # Total written bytes from the system interface side
system.mem_ctrls0.servicedByWrQ                    21                       # Number of DRAM read bursts serviced by the write queue
system.mem_ctrls0.mergedWrBursts                    0                       # Number of DRAM write bursts merged with an existing one
system.mem_ctrls0.neitherReadNorWriteReqs            0                       # Number of requests that are neither read nor write
system.mem_ctrls0.perBankRdBursts::0           524839                       # Per bank write bursts
system.mem_ctrls0.perBankRdBursts::1           524428                       # Per bank write bursts
system.mem_ctrls0.perBankRdBursts::2           525291                       # Per bank write bursts
system.mem_ctrls0.perBankRdBursts::3           526480                       # Per bank write bursts
system.mem_ctrls0.perBankRdBursts::4           526005                       # Per bank write bursts
system.mem_ctrls0.perBankRdBursts::5           524266                       # Per bank write bursts
system.mem_ctrls0.perBankRdBursts::6           523797                       # Per bank write bursts
system.mem_ctrls0.perBankRdBursts::7           525085                       # Per bank write bursts
system.mem_ctrls0.perBankRdBursts::8           525685                       # Per bank write bursts
system.mem_ctrls0.perBankRdBursts::9           524863                       # Per bank write bursts
system.mem_ctrls0.perBankRdBursts::10          523498                       # Per bank write bursts
system.mem_ctrls0.perBankRdBursts::11          524918                       # Per bank write bursts
system.mem_ctrls0.perBankRdBursts::12          525124                       # Per bank write bursts
system.mem_ctrls0.perBankRdBursts::13          524977                       # Per bank write bursts
system.mem_ctrls0.perBankRdBursts::14          525895                       # Per bank write bursts
system.mem_ctrls0.perBankRdBursts::15          525345                       # Per bank write bursts
system.mem_ctrls0.perBankWrBursts::0           275619                       # Per bank write bursts
system.mem_ctrls0.perBankWrBursts::1           274236                       # Per bank write bursts
system.mem_ctrls0.perBankWrBursts::2           273718                       # Per bank write bursts
system.mem_ctrls0.perBankWrBursts::3           274233                       # Per bank write bursts
system.mem_ctrls0.perBankWrBursts::4           274296                       # Per bank write bursts
system.mem_ctrls0.perBankWrBursts::5           273901                       # Per bank write bursts
system.mem_ctrls0.perBankWrBursts::6           273689                       # Per bank write bursts
system.mem_ctrls0.perBankWrBursts::7           273406                       # Per bank write bursts
system.mem_ctrls0.perBankWrBursts::8           273044                       # Per bank write bursts
system.mem_ctrls0.perBankWrBursts::9           273041                       # Per bank write bursts
system.mem_ctrls0.perBankWrBursts::10          273970                       # Per bank write bursts
system.mem_ctrls0.perBankWrBursts::11          275307                       # Per bank write bursts
system.mem_ctrls0.perBankWrBursts::12          274326                       # Per bank write bursts
system.mem_ctrls0.perBankWrBursts::13          273035                       # Per bank write bursts
system.mem_ctrls0.perBankWrBursts::14          273522                       # Per bank write bursts
system.mem_ctrls0.perBankWrBursts::15          275138                       # Per bank write bursts
system.mem_ctrls0.numRdRetry                        0                       # Number of times read queue was full causing retry
system.mem_ctrls0.numWrRetry                        0                       # Number of times write queue was full causing retry
system.mem_ctrls0.totGap                 3025610793900                       # Total gap between requests
system.mem_ctrls0.readPktSize::0                    0                       # Read request sizes (log2)
system.mem_ctrls0.readPktSize::1                    0                       # Read request sizes (log2)
system.mem_ctrls0.readPktSize::2                    0                       # Read request sizes (log2)
system.mem_ctrls0.readPktSize::3                    0                       # Read request sizes (log2)
system.mem_ctrls0.readPktSize::4                    0                       # Read request sizes (log2)
system.mem_ctrls0.readPktSize::5                    0                       # Read request sizes (log2)
system.mem_ctrls0.readPktSize::6              8400517                       # Read request sizes (log2)
system.mem_ctrls0.writePktSize::0                   0                       # Write request sizes (log2)
system.mem_ctrls0.writePktSize::1                   0                       # Write request sizes (log2)
system.mem_ctrls0.writePktSize::2                   0                       # Write request sizes (log2)
system.mem_ctrls0.writePktSize::3                   0                       # Write request sizes (log2)
system.mem_ctrls0.writePktSize::4                   0                       # Write request sizes (log2)
system.mem_ctrls0.writePktSize::5                   0                       # Write request sizes (log2)
system.mem_ctrls0.writePktSize::6             4384505                       # Write request sizes (log2)
system.mem_ctrls0.rdQLenPdf::0                7953773                       # What read queue length does an incoming req see
system.mem_ctrls0.rdQLenPdf::1                 326511                       # What read queue length does an incoming req see
system.mem_ctrls0.rdQLenPdf::2                 104798                       # What read queue length does an incoming req see
system.mem_ctrls0.rdQLenPdf::3                  15414                       # What read queue length does an incoming req see
system.mem_ctrls0.rdQLenPdf::4                      0                       # What read queue length does an incoming req see
system.mem_ctrls0.rdQLenPdf::5                      0                       # What read queue length does an incoming req see
system.mem_ctrls0.rdQLenPdf::6                      0                       # What read queue length does an incoming req see
system.mem_ctrls0.rdQLenPdf::7                      0                       # What read queue length does an incoming req see
system.mem_ctrls0.rdQLenPdf::8                      0                       # What read queue length does an incoming req see
system.mem_ctrls0.rdQLenPdf::9                      0                       # What read queue length does an incoming req see
system.mem_ctrls0.rdQLenPdf::10                     0                       # What read queue length does an incoming req see
system.mem_ctrls0.rdQLenPdf::11                     0                       # What read queue length does an incoming req see
system.mem_ctrls0.rdQLenPdf::12                     0                       # What read queue length does an incoming req see
system.mem_ctrls0.rdQLenPdf::13                     0                       # What read queue length does an incoming req see
system.mem_ctrls0.rdQLenPdf::14                     0                       # What read queue length does an incoming req see
system.mem_ctrls0.rdQLenPdf::15                     0                       # What read queue length does an incoming req see
system.mem_ctrls0.rdQLenPdf::16                     0                       # What read queue length does an incoming req see
system.mem_ctrls0.rdQLenPdf::17                     0                       # What read queue length does an incoming req see
system.mem_ctrls0.rdQLenPdf::18                     0                       # What read queue length does an incoming req see
system.mem_ctrls0.rdQLenPdf::19                     0                       # What read queue length does an incoming req see
system.mem_ctrls0.rdQLenPdf::20                     0                       # What read queue length does an incoming req see
system.mem_ctrls0.rdQLenPdf::21                     0                       # What read queue length does an incoming req see
system.mem_ctrls0.rdQLenPdf::22                     0                       # What read queue length does an incoming req see
system.mem_ctrls0.rdQLenPdf::23                     0                       # What read queue length does an incoming req see
system.mem_ctrls0.rdQLenPdf::24                     0                       # What read queue length does an incoming req see
system.mem_ctrls0.rdQLenPdf::25                     0                       # What read queue length does an incoming req see
system.mem_ctrls0.rdQLenPdf::26                     0                       # What read queue length does an incoming req see
system.mem_ctrls0.rdQLenPdf::27                     0                       # What read queue length does an incoming req see
system.mem_ctrls0.rdQLenPdf::28                     0                       # What read queue length does an incoming req see
system.mem_ctrls0.rdQLenPdf::29                     0                       # What read queue length does an incoming req see
system.mem_ctrls0.rdQLenPdf::30                     0                       # What read queue length does an incoming req see
system.mem_ctrls0.rdQLenPdf::31                     0                       # What read queue length does an incoming req see
system.mem_ctrls0.wrQLenPdf::0                      2                       # What write queue length does an incoming req see
system.mem_ctrls0.wrQLenPdf::1                      2                       # What write queue length does an incoming req see
system.mem_ctrls0.wrQLenPdf::2                      2                       # What write queue length does an incoming req see
system.mem_ctrls0.wrQLenPdf::3                      2                       # What write queue length does an incoming req see
system.mem_ctrls0.wrQLenPdf::4                      2                       # What write queue length does an incoming req see
system.mem_ctrls0.wrQLenPdf::5                      2                       # What write queue length does an incoming req see
system.mem_ctrls0.wrQLenPdf::6                      2                       # What write queue length does an incoming req see
system.mem_ctrls0.wrQLenPdf::7                      2                       # What write queue length does an incoming req see
system.mem_ctrls0.wrQLenPdf::8                      2                       # What write queue length does an incoming req see
system.mem_ctrls0.wrQLenPdf::9                      2                       # What write queue length does an incoming req see
system.mem_ctrls0.wrQLenPdf::10                     2                       # What write queue length does an incoming req see
system.mem_ctrls0.wrQLenPdf::11                     2                       # What write queue length does an incoming req see
system.mem_ctrls0.wrQLenPdf::12                     2                       # What write queue length does an incoming req see
system.mem_ctrls0.wrQLenPdf::13                     2                       # What write queue length does an incoming req see
system.mem_ctrls0.wrQLenPdf::14                     2                       # What write queue length does an incoming req see
system.mem_ctrls0.wrQLenPdf::15                150772                       # What write queue length does an incoming req see
system.mem_ctrls0.wrQLenPdf::16                158668                       # What write queue length does an incoming req see
system.mem_ctrls0.wrQLenPdf::17                246210                       # What write queue length does an incoming req see
system.mem_ctrls0.wrQLenPdf::18                253816                       # What write queue length does an incoming req see
system.mem_ctrls0.wrQLenPdf::19                254898                       # What write queue length does an incoming req see
system.mem_ctrls0.wrQLenPdf::20                254990                       # What write queue length does an incoming req see
system.mem_ctrls0.wrQLenPdf::21                255038                       # What write queue length does an incoming req see
system.mem_ctrls0.wrQLenPdf::22                255140                       # What write queue length does an incoming req see
system.mem_ctrls0.wrQLenPdf::23                255316                       # What write queue length does an incoming req see
system.mem_ctrls0.wrQLenPdf::24                255535                       # What write queue length does an incoming req see
system.mem_ctrls0.wrQLenPdf::25                255503                       # What write queue length does an incoming req see
system.mem_ctrls0.wrQLenPdf::26                255334                       # What write queue length does an incoming req see
system.mem_ctrls0.wrQLenPdf::27                255231                       # What write queue length does an incoming req see
system.mem_ctrls0.wrQLenPdf::28                255315                       # What write queue length does an incoming req see
system.mem_ctrls0.wrQLenPdf::29                255707                       # What write queue length does an incoming req see
system.mem_ctrls0.wrQLenPdf::30                257971                       # What write queue length does an incoming req see
system.mem_ctrls0.wrQLenPdf::31                254530                       # What write queue length does an incoming req see
system.mem_ctrls0.wrQLenPdf::32                254226                       # What write queue length does an incoming req see
system.mem_ctrls0.wrQLenPdf::33                   219                       # What write queue length does an incoming req see
system.mem_ctrls0.wrQLenPdf::34                    42                       # What write queue length does an incoming req see
system.mem_ctrls0.wrQLenPdf::35                    12                       # What write queue length does an incoming req see
system.mem_ctrls0.wrQLenPdf::36                     2                       # What write queue length does an incoming req see
system.mem_ctrls0.wrQLenPdf::37                     0                       # What write queue length does an incoming req see
system.mem_ctrls0.wrQLenPdf::38                     0                       # What write queue length does an incoming req see
system.mem_ctrls0.wrQLenPdf::39                     0                       # What write queue length does an incoming req see
system.mem_ctrls0.wrQLenPdf::40                     0                       # What write queue length does an incoming req see
system.mem_ctrls0.wrQLenPdf::41                     0                       # What write queue length does an incoming req see
system.mem_ctrls0.wrQLenPdf::42                     0                       # What write queue length does an incoming req see
system.mem_ctrls0.wrQLenPdf::43                     0                       # What write queue length does an incoming req see
system.mem_ctrls0.wrQLenPdf::44                     0                       # What write queue length does an incoming req see
system.mem_ctrls0.wrQLenPdf::45                     0                       # What write queue length does an incoming req see
system.mem_ctrls0.wrQLenPdf::46                     0                       # What write queue length does an incoming req see
system.mem_ctrls0.wrQLenPdf::47                     0                       # What write queue length does an incoming req see
system.mem_ctrls0.wrQLenPdf::48                     0                       # What write queue length does an incoming req see
system.mem_ctrls0.wrQLenPdf::49                     0                       # What write queue length does an incoming req see
system.mem_ctrls0.wrQLenPdf::50                     0                       # What write queue length does an incoming req see
system.mem_ctrls0.wrQLenPdf::51                     0                       # What write queue length does an incoming req see
system.mem_ctrls0.wrQLenPdf::52                     0                       # What write queue length does an incoming req see
system.mem_ctrls0.wrQLenPdf::53                     0                       # What write queue length does an incoming req see
system.mem_ctrls0.wrQLenPdf::54                     0                       # What write queue length does an incoming req see
system.mem_ctrls0.wrQLenPdf::55                     0                       # What write queue length does an incoming req see
system.mem_ctrls0.wrQLenPdf::56                     0                       # What write queue length does an incoming req see
system.mem_ctrls0.wrQLenPdf::57                     0                       # What write queue length does an incoming req see
system.mem_ctrls0.wrQLenPdf::58                     0                       # What write queue length does an incoming req see
system.mem_ctrls0.wrQLenPdf::59                     0                       # What write queue length does an incoming req see
system.mem_ctrls0.wrQLenPdf::60                     0                       # What write queue length does an incoming req see
system.mem_ctrls0.wrQLenPdf::61                     0                       # What write queue length does an incoming req see
system.mem_ctrls0.wrQLenPdf::62                     0                       # What write queue length does an incoming req see
system.mem_ctrls0.wrQLenPdf::63                     0                       # What write queue length does an incoming req see
system.mem_ctrls0.bytesPerActivate::samples      9097418                       # Bytes accessed per row activation
system.mem_ctrls0.bytesPerActivate::mean    89.941750                       # Bytes accessed per row activation
system.mem_ctrls0.bytesPerActivate::gmean    80.801228                       # Bytes accessed per row activation
system.mem_ctrls0.bytesPerActivate::stdev    53.534808                       # Bytes accessed per row activation
system.mem_ctrls0.bytesPerActivate::0-127      6686511     73.50%     73.50% # Bytes accessed per row activation
system.mem_ctrls0.bytesPerActivate::128-255      2110429     23.20%     96.70% # Bytes accessed per row activation
system.mem_ctrls0.bytesPerActivate::256-383       268402      2.95%     99.65% # Bytes accessed per row activation
system.mem_ctrls0.bytesPerActivate::384-511        22902      0.25%     99.90% # Bytes accessed per row activation
system.mem_ctrls0.bytesPerActivate::512-639         5199      0.06%     99.96% # Bytes accessed per row activation
system.mem_ctrls0.bytesPerActivate::640-767         1649      0.02%     99.97% # Bytes accessed per row activation
system.mem_ctrls0.bytesPerActivate::768-895          911      0.01%     99.98% # Bytes accessed per row activation
system.mem_ctrls0.bytesPerActivate::896-1023          482      0.01%     99.99% # Bytes accessed per row activation
system.mem_ctrls0.bytesPerActivate::1024-1151          933      0.01%    100.00% # Bytes accessed per row activation
system.mem_ctrls0.bytesPerActivate::total      9097418                       # Bytes accessed per row activation
system.mem_ctrls0.rdPerTurnAround::samples       253975                       # Reads before turning the bus around for writes
system.mem_ctrls0.rdPerTurnAround::mean     33.076043                       # Reads before turning the bus around for writes
system.mem_ctrls0.rdPerTurnAround::stdev    56.352735                       # Reads before turning the bus around for writes
system.mem_ctrls0.rdPerTurnAround::0-1023       253971    100.00%    100.00% # Reads before turning the bus around for writes
system.mem_ctrls0.rdPerTurnAround::1024-2047            3      0.00%    100.00% # Reads before turning the bus around for writes
system.mem_ctrls0.rdPerTurnAround::27648-28671            1      0.00%    100.00% # Reads before turning the bus around for writes
system.mem_ctrls0.rdPerTurnAround::total       253975                       # Reads before turning the bus around for writes
system.mem_ctrls0.wrPerTurnAround::samples       253975                       # Writes before turning the bus around for reads
system.mem_ctrls0.wrPerTurnAround::mean     17.263435                       # Writes before turning the bus around for reads
system.mem_ctrls0.wrPerTurnAround::gmean    17.232533                       # Writes before turning the bus around for reads
system.mem_ctrls0.wrPerTurnAround::stdev     1.027837                       # Writes before turning the bus around for reads
system.mem_ctrls0.wrPerTurnAround::16           96125     37.85%     37.85% # Writes before turning the bus around for reads
system.mem_ctrls0.wrPerTurnAround::17            6327      2.49%     40.34% # Writes before turning the bus around for reads
system.mem_ctrls0.wrPerTurnAround::18          141476     55.70%     96.04% # Writes before turning the bus around for reads
system.mem_ctrls0.wrPerTurnAround::19            8860      3.49%     99.53% # Writes before turning the bus around for reads
system.mem_ctrls0.wrPerTurnAround::20            1000      0.39%     99.93% # Writes before turning the bus around for reads
system.mem_ctrls0.wrPerTurnAround::21             136      0.05%     99.98% # Writes before turning the bus around for reads
system.mem_ctrls0.wrPerTurnAround::22              29      0.01%     99.99% # Writes before turning the bus around for reads
system.mem_ctrls0.wrPerTurnAround::23              14      0.01%    100.00% # Writes before turning the bus around for reads
system.mem_ctrls0.wrPerTurnAround::24               5      0.00%    100.00% # Writes before turning the bus around for reads
system.mem_ctrls0.wrPerTurnAround::25               1      0.00%    100.00% # Writes before turning the bus around for reads
system.mem_ctrls0.wrPerTurnAround::26               1      0.00%    100.00% # Writes before turning the bus around for reads
system.mem_ctrls0.wrPerTurnAround::27               1      0.00%    100.00% # Writes before turning the bus around for reads
system.mem_ctrls0.wrPerTurnAround::total       253975                       # Writes before turning the bus around for reads
system.mem_ctrls0.totQLat                225355592651                       # Total ticks spent queuing
system.mem_ctrls0.totMemAccLat           382864892651                       # Total ticks spent from burst creation until serviced by the DRAM
system.mem_ctrls0.totBusLat               42002480000                       # Total ticks spent in databus transfers
system.mem_ctrls0.avgQLat                    26826.46                       # Average queueing delay per DRAM burst
system.mem_ctrls0.avgBusLat                   5000.00                       # Average bus latency per DRAM burst
system.mem_ctrls0.avgMemAccLat               45576.46                       # Average memory access latency per DRAM burst
system.mem_ctrls0.avgRdBW                      177.69                       # Average DRAM read bandwidth in MiByte/s
system.mem_ctrls0.avgWrBW                       92.74                       # Average achieved write bandwidth in MiByte/s
system.mem_ctrls0.avgRdBWSys                   177.69                       # Average system read bandwidth in MiByte/s
system.mem_ctrls0.avgWrBWSys                    92.74                       # Average system write bandwidth in MiByte/s
system.mem_ctrls0.peakBW                     12800.00                       # Theoretical peak bandwidth in MiByte/s
system.mem_ctrls0.busUtil                        2.11                       # Data bus utilization in percentage
system.mem_ctrls0.busUtilRead                    1.39                       # Data bus utilization in percentage for reads
system.mem_ctrls0.busUtilWrite                   0.72                       # Data bus utilization in percentage for writes
system.mem_ctrls0.avgRdQLen                      1.03                       # Average read queue length when enqueuing
system.mem_ctrls0.avgWrQLen                     24.77                       # Average write queue length when enqueuing
system.mem_ctrls0.readRowHits                 2867603                       # Number of row buffer hits during reads
system.mem_ctrls0.writeRowHits                 819947                       # Number of row buffer hits during writes
system.mem_ctrls0.readRowHitRate                34.14                       # Row buffer hit rate for reads
system.mem_ctrls0.writeRowHitRate               18.70                       # Row buffer hit rate for writes
system.mem_ctrls0.avgGap                    236652.76                       # Average gap between requests
system.mem_ctrls0.pageHitRate                   28.84                       # Row buffer hit rate, read and write combined
system.mem_ctrls0_0.actEnergy             32458618500                       # Energy for activate commands per rank (pJ)
system.mem_ctrls0_0.preEnergy             17252142105                       # Energy for precharge commands per rank (pJ)
system.mem_ctrls0_0.readEnergy            29989363740                       # Energy for read commands per rank (pJ)
system.mem_ctrls0_0.writeEnergy           11447971560                       # Energy for write commands per rank (pJ)
system.mem_ctrls0_0.refreshEnergy        238477246800.000061                       # Energy for refresh commands per rank (pJ)
system.mem_ctrls0_0.actBackEnergy        209832456120                       # Energy for active background per rank (pJ)
system.mem_ctrls0_0.preBackEnergy          6254706720                       # Energy for precharge background per rank (pJ)
system.mem_ctrls0_0.actPowerDownEnergy   1013507424570                       # Energy for active power-down per rank (pJ)
system.mem_ctrls0_0.prePowerDownEnergy   104550247200                       # Energy for precharge power-down per rank (pJ)
system.mem_ctrls0_0.selfRefreshEnergy     16823514210                       # Energy for self refresh per rank (pJ)
system.mem_ctrls0_0.totalEnergy          1680619302045                       # Total energy per rank (pJ)
system.mem_ctrls0_0.averagePower           555.464459                       # Core power per rank (mW)
system.mem_ctrls0_0.totalIdleTime        2549117552636                       # Total Idle time Per DRAM Rank
system.mem_ctrls0_0.memoryStateTime::IDLE   4065843943                       # Time in different power states
system.mem_ctrls0_0.memoryStateTime::REF 100922626000                       # Time in different power states
system.mem_ctrls0_0.memoryStateTime::SREF  54236431373                       # Time in different power states
system.mem_ctrls0_0.memoryStateTime::PRE_PDN 272263638346                       # Time in different power states
system.mem_ctrls0_0.memoryStateTime::ACT 371504749784                       # Time in different power states
system.mem_ctrls0_0.memoryStateTime::ACT_PDN 2222617563728                       # Time in different power states
system.mem_ctrls0_1.actEnergy             32497010280                       # Energy for activate commands per rank (pJ)
system.mem_ctrls0_1.preEnergy             17272559205                       # Energy for precharge commands per rank (pJ)
system.mem_ctrls0_1.readEnergy            29990177700                       # Energy for read commands per rank (pJ)
system.mem_ctrls0_1.writeEnergy           11439019260                       # Energy for write commands per rank (pJ)
system.mem_ctrls0_1.refreshEnergy        238117067760.000061                       # Energy for refresh commands per rank (pJ)
system.mem_ctrls0_1.actBackEnergy        208446354630                       # Energy for active background per rank (pJ)
system.mem_ctrls0_1.preBackEnergy          6229515840                       # Energy for precharge background per rank (pJ)
system.mem_ctrls0_1.actPowerDownEnergy   1015412252280                       # Energy for active power-down per rank (pJ)
system.mem_ctrls0_1.prePowerDownEnergy   103390110240                       # Energy for precharge power-down per rank (pJ)
system.mem_ctrls0_1.selfRefreshEnergy     17092264320                       # Energy for self refresh per rank (pJ)
system.mem_ctrls0_1.totalEnergy          1679913507045                       # Total energy per rank (pJ)
system.mem_ctrls0_1.averagePower           555.231185                       # Core power per rank (mW)
system.mem_ctrls0_1.totalIdleTime        2552207765040                       # Total Idle time Per DRAM Rank
system.mem_ctrls0_1.memoryStateTime::IDLE   3975194810                       # Time in different power states
system.mem_ctrls0_1.memoryStateTime::REF 100768070000                       # Time in different power states
system.mem_ctrls0_1.memoryStateTime::SREF  56182234825                       # Time in different power states
system.mem_ctrls0_1.memoryStateTime::PRE_PDN 269246069758                       # Time in different power states
system.mem_ctrls0_1.memoryStateTime::ACT 368659823324                       # Time in different power states
system.mem_ctrls0_1.memoryStateTime::ACT_PDN 2226779460457                       # Time in different power states
system.mem_ctrls1.pwrStateResidencyTicks::UNDEFINED 146502599170248                       # Cumulative time (in ticks) in various power states
system.mem_ctrls1.bytes_read::cpu.inst             64                       # Number of bytes read from this memory
system.mem_ctrls1.bytes_read::cpu.data             64                       # Number of bytes read from this memory
system.mem_ctrls1.bytes_read::switch_cpus.inst        20288                       # Number of bytes read from this memory
system.mem_ctrls1.bytes_read::switch_cpus.data    452886272                       # Number of bytes read from this memory
system.mem_ctrls1.bytes_read::switch_cpus_1.inst         6656                       # Number of bytes read from this memory
system.mem_ctrls1.bytes_read::switch_cpus_1.data     84730496                       # Number of bytes read from this memory
system.mem_ctrls1.bytes_read::total         537643840                       # Number of bytes read from this memory
system.mem_ctrls1.bytes_inst_read::cpu.inst           64                       # Number of instructions bytes read from this memory
system.mem_ctrls1.bytes_inst_read::switch_cpus.inst        20288                       # Number of instructions bytes read from this memory
system.mem_ctrls1.bytes_inst_read::switch_cpus_1.inst         6656                       # Number of instructions bytes read from this memory
system.mem_ctrls1.bytes_inst_read::total        27008                       # Number of instructions bytes read from this memory
system.mem_ctrls1.bytes_written::writebacks    280595840                       # Number of bytes written to this memory
system.mem_ctrls1.bytes_written::total      280595840                       # Number of bytes written to this memory
system.mem_ctrls1.num_reads::cpu.inst               1                       # Number of read requests responded to by this memory
system.mem_ctrls1.num_reads::cpu.data               1                       # Number of read requests responded to by this memory
system.mem_ctrls1.num_reads::switch_cpus.inst          317                       # Number of read requests responded to by this memory
system.mem_ctrls1.num_reads::switch_cpus.data      7076348                       # Number of read requests responded to by this memory
system.mem_ctrls1.num_reads::switch_cpus_1.inst          104                       # Number of read requests responded to by this memory
system.mem_ctrls1.num_reads::switch_cpus_1.data      1323914                       # Number of read requests responded to by this memory
system.mem_ctrls1.num_reads::total            8400685                       # Number of read requests responded to by this memory
system.mem_ctrls1.num_writes::writebacks      4384310                       # Number of write requests responded to by this memory
system.mem_ctrls1.num_writes::total           4384310                       # Number of write requests responded to by this memory
system.mem_ctrls1.bw_read::cpu.inst                21                       # Total read bandwidth from this memory (bytes/s)
system.mem_ctrls1.bw_read::cpu.data                21                       # Total read bandwidth from this memory (bytes/s)
system.mem_ctrls1.bw_read::switch_cpus.inst         6705                       # Total read bandwidth from this memory (bytes/s)
system.mem_ctrls1.bw_read::switch_cpus.data    149684244                       # Total read bandwidth from this memory (bytes/s)
system.mem_ctrls1.bw_read::switch_cpus_1.inst         2200                       # Total read bandwidth from this memory (bytes/s)
system.mem_ctrls1.bw_read::switch_cpus_1.data     28004426                       # Total read bandwidth from this memory (bytes/s)
system.mem_ctrls1.bw_read::total            177697617                       # Total read bandwidth from this memory (bytes/s)
system.mem_ctrls1.bw_inst_read::cpu.inst           21                       # Instruction read bandwidth from this memory (bytes/s)
system.mem_ctrls1.bw_inst_read::switch_cpus.inst         6705                       # Instruction read bandwidth from this memory (bytes/s)
system.mem_ctrls1.bw_inst_read::switch_cpus_1.inst         2200                       # Instruction read bandwidth from this memory (bytes/s)
system.mem_ctrls1.bw_inst_read::total            8926                       # Instruction read bandwidth from this memory (bytes/s)
system.mem_ctrls1.bw_write::writebacks       92740228                       # Write bandwidth from this memory (bytes/s)
system.mem_ctrls1.bw_write::total            92740228                       # Write bandwidth from this memory (bytes/s)
system.mem_ctrls1.bw_total::writebacks       92740228                       # Total bandwidth to/from this memory (bytes/s)
system.mem_ctrls1.bw_total::cpu.inst               21                       # Total bandwidth to/from this memory (bytes/s)
system.mem_ctrls1.bw_total::cpu.data               21                       # Total bandwidth to/from this memory (bytes/s)
system.mem_ctrls1.bw_total::switch_cpus.inst         6705                       # Total bandwidth to/from this memory (bytes/s)
system.mem_ctrls1.bw_total::switch_cpus.data    149684244                       # Total bandwidth to/from this memory (bytes/s)
system.mem_ctrls1.bw_total::switch_cpus_1.inst         2200                       # Total bandwidth to/from this memory (bytes/s)
system.mem_ctrls1.bw_total::switch_cpus_1.data     28004426                       # Total bandwidth to/from this memory (bytes/s)
system.mem_ctrls1.bw_total::total           270437845                       # Total bandwidth to/from this memory (bytes/s)
system.mem_ctrls1.readReqs                    8400685                       # Number of read requests accepted
system.mem_ctrls1.writeReqs                   4384310                       # Number of write requests accepted
system.mem_ctrls1.readBursts                  8400685                       # Number of DRAM read bursts, including those serviced by the write queue
system.mem_ctrls1.writeBursts                 4384310                       # Number of DRAM write bursts, including those merged in the write queue
system.mem_ctrls1.bytesReadDRAM             537642304                       # Total number of bytes read from DRAM
system.mem_ctrls1.bytesReadWrQ                   1536                       # Total number of bytes read from write queue
system.mem_ctrls1.bytesWritten              280594048                       # Total number of bytes written to DRAM
system.mem_ctrls1.bytesReadSys              537643840                       # Total read bytes from the system interface side
system.mem_ctrls1.bytesWrittenSys           280595840                       # Total written bytes from the system interface side
system.mem_ctrls1.servicedByWrQ                    24                       # Number of DRAM read bursts serviced by the write queue
system.mem_ctrls1.mergedWrBursts                    0                       # Number of DRAM write bursts merged with an existing one
system.mem_ctrls1.neitherReadNorWriteReqs            0                       # Number of requests that are neither read nor write
system.mem_ctrls1.perBankRdBursts::0           524322                       # Per bank write bursts
system.mem_ctrls1.perBankRdBursts::1           524734                       # Per bank write bursts
system.mem_ctrls1.perBankRdBursts::2           524807                       # Per bank write bursts
system.mem_ctrls1.perBankRdBursts::3           527081                       # Per bank write bursts
system.mem_ctrls1.perBankRdBursts::4           525965                       # Per bank write bursts
system.mem_ctrls1.perBankRdBursts::5           524688                       # Per bank write bursts
system.mem_ctrls1.perBankRdBursts::6           523683                       # Per bank write bursts
system.mem_ctrls1.perBankRdBursts::7           524608                       # Per bank write bursts
system.mem_ctrls1.perBankRdBursts::8           525806                       # Per bank write bursts
system.mem_ctrls1.perBankRdBursts::9           524519                       # Per bank write bursts
system.mem_ctrls1.perBankRdBursts::10          523852                       # Per bank write bursts
system.mem_ctrls1.perBankRdBursts::11          524805                       # Per bank write bursts
system.mem_ctrls1.perBankRdBursts::12          525069                       # Per bank write bursts
system.mem_ctrls1.perBankRdBursts::13          525110                       # Per bank write bursts
system.mem_ctrls1.perBankRdBursts::14          525899                       # Per bank write bursts
system.mem_ctrls1.perBankRdBursts::15          525713                       # Per bank write bursts
system.mem_ctrls1.perBankWrBursts::0           275478                       # Per bank write bursts
system.mem_ctrls1.perBankWrBursts::1           274446                       # Per bank write bursts
system.mem_ctrls1.perBankWrBursts::2           273546                       # Per bank write bursts
system.mem_ctrls1.perBankWrBursts::3           274377                       # Per bank write bursts
system.mem_ctrls1.perBankWrBursts::4           274282                       # Per bank write bursts
system.mem_ctrls1.perBankWrBursts::5           273872                       # Per bank write bursts
system.mem_ctrls1.perBankWrBursts::6           273712                       # Per bank write bursts
system.mem_ctrls1.perBankWrBursts::7           273209                       # Per bank write bursts
system.mem_ctrls1.perBankWrBursts::8           273120                       # Per bank write bursts
system.mem_ctrls1.perBankWrBursts::9           272953                       # Per bank write bursts
system.mem_ctrls1.perBankWrBursts::10          273985                       # Per bank write bursts
system.mem_ctrls1.perBankWrBursts::11          275356                       # Per bank write bursts
system.mem_ctrls1.perBankWrBursts::12          274287                       # Per bank write bursts
system.mem_ctrls1.perBankWrBursts::13          273000                       # Per bank write bursts
system.mem_ctrls1.perBankWrBursts::14          273490                       # Per bank write bursts
system.mem_ctrls1.perBankWrBursts::15          275169                       # Per bank write bursts
system.mem_ctrls1.numRdRetry                        0                       # Number of times read queue was full causing retry
system.mem_ctrls1.numWrRetry                        0                       # Number of times write queue was full causing retry
system.mem_ctrls1.totGap                 3025610570124                       # Total gap between requests
system.mem_ctrls1.readPktSize::0                    0                       # Read request sizes (log2)
system.mem_ctrls1.readPktSize::1                    0                       # Read request sizes (log2)
system.mem_ctrls1.readPktSize::2                    0                       # Read request sizes (log2)
system.mem_ctrls1.readPktSize::3                    0                       # Read request sizes (log2)
system.mem_ctrls1.readPktSize::4                    0                       # Read request sizes (log2)
system.mem_ctrls1.readPktSize::5                    0                       # Read request sizes (log2)
system.mem_ctrls1.readPktSize::6              8400685                       # Read request sizes (log2)
system.mem_ctrls1.writePktSize::0                   0                       # Write request sizes (log2)
system.mem_ctrls1.writePktSize::1                   0                       # Write request sizes (log2)
system.mem_ctrls1.writePktSize::2                   0                       # Write request sizes (log2)
system.mem_ctrls1.writePktSize::3                   0                       # Write request sizes (log2)
system.mem_ctrls1.writePktSize::4                   0                       # Write request sizes (log2)
system.mem_ctrls1.writePktSize::5                   0                       # Write request sizes (log2)
system.mem_ctrls1.writePktSize::6             4384310                       # Write request sizes (log2)
system.mem_ctrls1.rdQLenPdf::0                7953544                       # What read queue length does an incoming req see
system.mem_ctrls1.rdQLenPdf::1                 326935                       # What read queue length does an incoming req see
system.mem_ctrls1.rdQLenPdf::2                 104752                       # What read queue length does an incoming req see
system.mem_ctrls1.rdQLenPdf::3                  15430                       # What read queue length does an incoming req see
system.mem_ctrls1.rdQLenPdf::4                      0                       # What read queue length does an incoming req see
system.mem_ctrls1.rdQLenPdf::5                      0                       # What read queue length does an incoming req see
system.mem_ctrls1.rdQLenPdf::6                      0                       # What read queue length does an incoming req see
system.mem_ctrls1.rdQLenPdf::7                      0                       # What read queue length does an incoming req see
system.mem_ctrls1.rdQLenPdf::8                      0                       # What read queue length does an incoming req see
system.mem_ctrls1.rdQLenPdf::9                      0                       # What read queue length does an incoming req see
system.mem_ctrls1.rdQLenPdf::10                     0                       # What read queue length does an incoming req see
system.mem_ctrls1.rdQLenPdf::11                     0                       # What read queue length does an incoming req see
system.mem_ctrls1.rdQLenPdf::12                     0                       # What read queue length does an incoming req see
system.mem_ctrls1.rdQLenPdf::13                     0                       # What read queue length does an incoming req see
system.mem_ctrls1.rdQLenPdf::14                     0                       # What read queue length does an incoming req see
system.mem_ctrls1.rdQLenPdf::15                     0                       # What read queue length does an incoming req see
system.mem_ctrls1.rdQLenPdf::16                     0                       # What read queue length does an incoming req see
system.mem_ctrls1.rdQLenPdf::17                     0                       # What read queue length does an incoming req see
system.mem_ctrls1.rdQLenPdf::18                     0                       # What read queue length does an incoming req see
system.mem_ctrls1.rdQLenPdf::19                     0                       # What read queue length does an incoming req see
system.mem_ctrls1.rdQLenPdf::20                     0                       # What read queue length does an incoming req see
system.mem_ctrls1.rdQLenPdf::21                     0                       # What read queue length does an incoming req see
system.mem_ctrls1.rdQLenPdf::22                     0                       # What read queue length does an incoming req see
system.mem_ctrls1.rdQLenPdf::23                     0                       # What read queue length does an incoming req see
system.mem_ctrls1.rdQLenPdf::24                     0                       # What read queue length does an incoming req see
system.mem_ctrls1.rdQLenPdf::25                     0                       # What read queue length does an incoming req see
system.mem_ctrls1.rdQLenPdf::26                     0                       # What read queue length does an incoming req see
system.mem_ctrls1.rdQLenPdf::27                     0                       # What read queue length does an incoming req see
system.mem_ctrls1.rdQLenPdf::28                     0                       # What read queue length does an incoming req see
system.mem_ctrls1.rdQLenPdf::29                     0                       # What read queue length does an incoming req see
system.mem_ctrls1.rdQLenPdf::30                     0                       # What read queue length does an incoming req see
system.mem_ctrls1.rdQLenPdf::31                     0                       # What read queue length does an incoming req see
system.mem_ctrls1.wrQLenPdf::0                      2                       # What write queue length does an incoming req see
system.mem_ctrls1.wrQLenPdf::1                      2                       # What write queue length does an incoming req see
system.mem_ctrls1.wrQLenPdf::2                      2                       # What write queue length does an incoming req see
system.mem_ctrls1.wrQLenPdf::3                      2                       # What write queue length does an incoming req see
system.mem_ctrls1.wrQLenPdf::4                      2                       # What write queue length does an incoming req see
system.mem_ctrls1.wrQLenPdf::5                      2                       # What write queue length does an incoming req see
system.mem_ctrls1.wrQLenPdf::6                      2                       # What write queue length does an incoming req see
system.mem_ctrls1.wrQLenPdf::7                      2                       # What write queue length does an incoming req see
system.mem_ctrls1.wrQLenPdf::8                      2                       # What write queue length does an incoming req see
system.mem_ctrls1.wrQLenPdf::9                      2                       # What write queue length does an incoming req see
system.mem_ctrls1.wrQLenPdf::10                     2                       # What write queue length does an incoming req see
system.mem_ctrls1.wrQLenPdf::11                     2                       # What write queue length does an incoming req see
system.mem_ctrls1.wrQLenPdf::12                     2                       # What write queue length does an incoming req see
system.mem_ctrls1.wrQLenPdf::13                     2                       # What write queue length does an incoming req see
system.mem_ctrls1.wrQLenPdf::14                     2                       # What write queue length does an incoming req see
system.mem_ctrls1.wrQLenPdf::15                150980                       # What write queue length does an incoming req see
system.mem_ctrls1.wrQLenPdf::16                158922                       # What write queue length does an incoming req see
system.mem_ctrls1.wrQLenPdf::17                246001                       # What write queue length does an incoming req see
system.mem_ctrls1.wrQLenPdf::18                253680                       # What write queue length does an incoming req see
system.mem_ctrls1.wrQLenPdf::19                254821                       # What write queue length does an incoming req see
system.mem_ctrls1.wrQLenPdf::20                254935                       # What write queue length does an incoming req see
system.mem_ctrls1.wrQLenPdf::21                255002                       # What write queue length does an incoming req see
system.mem_ctrls1.wrQLenPdf::22                255101                       # What write queue length does an incoming req see
system.mem_ctrls1.wrQLenPdf::23                255338                       # What write queue length does an incoming req see
system.mem_ctrls1.wrQLenPdf::24                255498                       # What write queue length does an incoming req see
system.mem_ctrls1.wrQLenPdf::25                255540                       # What write queue length does an incoming req see
system.mem_ctrls1.wrQLenPdf::26                255325                       # What write queue length does an incoming req see
system.mem_ctrls1.wrQLenPdf::27                255281                       # What write queue length does an incoming req see
system.mem_ctrls1.wrQLenPdf::28                255318                       # What write queue length does an incoming req see
system.mem_ctrls1.wrQLenPdf::29                255668                       # What write queue length does an incoming req see
system.mem_ctrls1.wrQLenPdf::30                257871                       # What write queue length does an incoming req see
system.mem_ctrls1.wrQLenPdf::31                254522                       # What write queue length does an incoming req see
system.mem_ctrls1.wrQLenPdf::32                254190                       # What write queue length does an incoming req see
system.mem_ctrls1.wrQLenPdf::33                   228                       # What write queue length does an incoming req see
system.mem_ctrls1.wrQLenPdf::34                    44                       # What write queue length does an incoming req see
system.mem_ctrls1.wrQLenPdf::35                    12                       # What write queue length does an incoming req see
system.mem_ctrls1.wrQLenPdf::36                     3                       # What write queue length does an incoming req see
system.mem_ctrls1.wrQLenPdf::37                     0                       # What write queue length does an incoming req see
system.mem_ctrls1.wrQLenPdf::38                     0                       # What write queue length does an incoming req see
system.mem_ctrls1.wrQLenPdf::39                     0                       # What write queue length does an incoming req see
system.mem_ctrls1.wrQLenPdf::40                     0                       # What write queue length does an incoming req see
system.mem_ctrls1.wrQLenPdf::41                     0                       # What write queue length does an incoming req see
system.mem_ctrls1.wrQLenPdf::42                     0                       # What write queue length does an incoming req see
system.mem_ctrls1.wrQLenPdf::43                     0                       # What write queue length does an incoming req see
system.mem_ctrls1.wrQLenPdf::44                     0                       # What write queue length does an incoming req see
system.mem_ctrls1.wrQLenPdf::45                     0                       # What write queue length does an incoming req see
system.mem_ctrls1.wrQLenPdf::46                     0                       # What write queue length does an incoming req see
system.mem_ctrls1.wrQLenPdf::47                     0                       # What write queue length does an incoming req see
system.mem_ctrls1.wrQLenPdf::48                     0                       # What write queue length does an incoming req see
system.mem_ctrls1.wrQLenPdf::49                     0                       # What write queue length does an incoming req see
system.mem_ctrls1.wrQLenPdf::50                     0                       # What write queue length does an incoming req see
system.mem_ctrls1.wrQLenPdf::51                     0                       # What write queue length does an incoming req see
system.mem_ctrls1.wrQLenPdf::52                     0                       # What write queue length does an incoming req see
system.mem_ctrls1.wrQLenPdf::53                     0                       # What write queue length does an incoming req see
system.mem_ctrls1.wrQLenPdf::54                     0                       # What write queue length does an incoming req see
system.mem_ctrls1.wrQLenPdf::55                     0                       # What write queue length does an incoming req see
system.mem_ctrls1.wrQLenPdf::56                     0                       # What write queue length does an incoming req see
system.mem_ctrls1.wrQLenPdf::57                     0                       # What write queue length does an incoming req see
system.mem_ctrls1.wrQLenPdf::58                     0                       # What write queue length does an incoming req see
system.mem_ctrls1.wrQLenPdf::59                     0                       # What write queue length does an incoming req see
system.mem_ctrls1.wrQLenPdf::60                     0                       # What write queue length does an incoming req see
system.mem_ctrls1.wrQLenPdf::61                     0                       # What write queue length does an incoming req see
system.mem_ctrls1.wrQLenPdf::62                     0                       # What write queue length does an incoming req see
system.mem_ctrls1.wrQLenPdf::63                     0                       # What write queue length does an incoming req see
system.mem_ctrls1.bytesPerActivate::samples      9100386                       # Bytes accessed per row activation
system.mem_ctrls1.bytesPerActivate::mean    89.912198                       # Bytes accessed per row activation
system.mem_ctrls1.bytesPerActivate::gmean    80.786810                       # Bytes accessed per row activation
system.mem_ctrls1.bytesPerActivate::stdev    53.482064                       # Bytes accessed per row activation
system.mem_ctrls1.bytesPerActivate::0-127      6689082     73.50%     73.50% # Bytes accessed per row activation
system.mem_ctrls1.bytesPerActivate::128-255      2111744     23.20%     96.71% # Bytes accessed per row activation
system.mem_ctrls1.bytesPerActivate::256-383       267560      2.94%     99.65% # Bytes accessed per row activation
system.mem_ctrls1.bytesPerActivate::384-511        22823      0.25%     99.90% # Bytes accessed per row activation
system.mem_ctrls1.bytesPerActivate::512-639         5205      0.06%     99.96% # Bytes accessed per row activation
system.mem_ctrls1.bytesPerActivate::640-767         1689      0.02%     99.97% # Bytes accessed per row activation
system.mem_ctrls1.bytesPerActivate::768-895          827      0.01%     99.98% # Bytes accessed per row activation
system.mem_ctrls1.bytesPerActivate::896-1023          514      0.01%     99.99% # Bytes accessed per row activation
system.mem_ctrls1.bytesPerActivate::1024-1151          942      0.01%    100.00% # Bytes accessed per row activation
system.mem_ctrls1.bytesPerActivate::total      9100386                       # Bytes accessed per row activation
system.mem_ctrls1.rdPerTurnAround::samples       253958                       # Reads before turning the bus around for writes
system.mem_ctrls1.rdPerTurnAround::mean     33.078871                       # Reads before turning the bus around for writes
system.mem_ctrls1.rdPerTurnAround::stdev    55.995719                       # Reads before turning the bus around for writes
system.mem_ctrls1.rdPerTurnAround::0-1023       253955    100.00%    100.00% # Reads before turning the bus around for writes
system.mem_ctrls1.rdPerTurnAround::1024-2047            2      0.00%    100.00% # Reads before turning the bus around for writes
system.mem_ctrls1.rdPerTurnAround::27648-28671            1      0.00%    100.00% # Reads before turning the bus around for writes
system.mem_ctrls1.rdPerTurnAround::total       253958                       # Reads before turning the bus around for writes
system.mem_ctrls1.wrPerTurnAround::samples       253958                       # Writes before turning the bus around for reads
system.mem_ctrls1.wrPerTurnAround::mean     17.263807                       # Writes before turning the bus around for reads
system.mem_ctrls1.wrPerTurnAround::gmean    17.233064                       # Writes before turning the bus around for reads
system.mem_ctrls1.wrPerTurnAround::stdev     1.024882                       # Writes before turning the bus around for reads
system.mem_ctrls1.wrPerTurnAround::15               1      0.00%      0.00% # Writes before turning the bus around for reads
system.mem_ctrls1.wrPerTurnAround::16           95872     37.75%     37.75% # Writes before turning the bus around for reads
system.mem_ctrls1.wrPerTurnAround::17            6368      2.51%     40.26% # Writes before turning the bus around for reads
system.mem_ctrls1.wrPerTurnAround::18          141924     55.88%     96.14% # Writes before turning the bus around for reads
system.mem_ctrls1.wrPerTurnAround::19            8671      3.41%     99.56% # Writes before turning the bus around for reads
system.mem_ctrls1.wrPerTurnAround::20             949      0.37%     99.93% # Writes before turning the bus around for reads
system.mem_ctrls1.wrPerTurnAround::21             129      0.05%     99.98% # Writes before turning the bus around for reads
system.mem_ctrls1.wrPerTurnAround::22              26      0.01%     99.99% # Writes before turning the bus around for reads
system.mem_ctrls1.wrPerTurnAround::23              15      0.01%    100.00% # Writes before turning the bus around for reads
system.mem_ctrls1.wrPerTurnAround::24               3      0.00%    100.00% # Writes before turning the bus around for reads
system.mem_ctrls1.wrPerTurnAround::total       253958                       # Writes before turning the bus around for reads
system.mem_ctrls1.totQLat                225719833075                       # Total ticks spent queuing
system.mem_ctrls1.totMemAccLat           383232226825                       # Total ticks spent from burst creation until serviced by the DRAM
system.mem_ctrls1.totBusLat               42003305000                       # Total ticks spent in databus transfers
system.mem_ctrls1.avgQLat                    26869.29                       # Average queueing delay per DRAM burst
system.mem_ctrls1.avgBusLat                   5000.00                       # Average bus latency per DRAM burst
system.mem_ctrls1.avgMemAccLat               45619.29                       # Average memory access latency per DRAM burst
system.mem_ctrls1.avgRdBW                      177.70                       # Average DRAM read bandwidth in MiByte/s
system.mem_ctrls1.avgWrBW                       92.74                       # Average achieved write bandwidth in MiByte/s
system.mem_ctrls1.avgRdBWSys                   177.70                       # Average system read bandwidth in MiByte/s
system.mem_ctrls1.avgWrBWSys                    92.74                       # Average system write bandwidth in MiByte/s
system.mem_ctrls1.peakBW                     12800.00                       # Theoretical peak bandwidth in MiByte/s
system.mem_ctrls1.busUtil                        2.11                       # Data bus utilization in percentage
system.mem_ctrls1.busUtilRead                    1.39                       # Data bus utilization in percentage for reads
system.mem_ctrls1.busUtilWrite                   0.72                       # Data bus utilization in percentage for writes
system.mem_ctrls1.avgRdQLen                      1.03                       # Average read queue length when enqueuing
system.mem_ctrls1.avgWrQLen                     24.75                       # Average write queue length when enqueuing
system.mem_ctrls1.readRowHits                 2865776                       # Number of row buffer hits during reads
system.mem_ctrls1.writeRowHits                 818777                       # Number of row buffer hits during writes
system.mem_ctrls1.readRowHitRate                34.11                       # Row buffer hit rate for reads
system.mem_ctrls1.writeRowHitRate               18.68                       # Row buffer hit rate for writes
system.mem_ctrls1.avgGap                    236653.25                       # Average gap between requests
system.mem_ctrls1.pageHitRate                   28.82                       # Row buffer hit rate, read and write combined
system.mem_ctrls1_0.actEnergy             32469321360                       # Energy for activate commands per rank (pJ)
system.mem_ctrls1_0.preEnergy             17257838400                       # Energy for precharge commands per rank (pJ)
system.mem_ctrls1_0.readEnergy            29987200320                       # Energy for read commands per rank (pJ)
system.mem_ctrls1_0.writeEnergy           11447052840                       # Energy for write commands per rank (pJ)
system.mem_ctrls1_0.refreshEnergy        238389353280.000061                       # Energy for refresh commands per rank (pJ)
system.mem_ctrls1_0.actBackEnergy        209298269790                       # Energy for active background per rank (pJ)
system.mem_ctrls1_0.preBackEnergy          6246189120                       # Energy for precharge background per rank (pJ)
system.mem_ctrls1_0.actPowerDownEnergy   1013625146670                       # Energy for active power-down per rank (pJ)
system.mem_ctrls1_0.prePowerDownEnergy   104478508800                       # Energy for precharge power-down per rank (pJ)
system.mem_ctrls1_0.selfRefreshEnergy     17093714055                       # Energy for self refresh per rank (pJ)
system.mem_ctrls1_0.totalEnergy          1680320399625                       # Total energy per rank (pJ)
system.mem_ctrls1_0.averagePower           555.365667                       # Core power per rank (mW)
system.mem_ctrls1_0.totalIdleTime        2550293785303                       # Total Idle time Per DRAM Rank
system.mem_ctrls1_0.memoryStateTime::IDLE   4055115147                       # Time in different power states
system.mem_ctrls1_0.memoryStateTime::REF 100885392000                       # Time in different power states
system.mem_ctrls1_0.memoryStateTime::SREF  55353765960                       # Time in different power states
system.mem_ctrls1_0.memoryStateTime::PRE_PDN 272080372451                       # Time in different power states
system.mem_ctrls1_0.memoryStateTime::ACT 370376490574                       # Time in different power states
system.mem_ctrls1_0.memoryStateTime::ACT_PDN 2222859717042                       # Time in different power states
system.mem_ctrls1_1.actEnergy             32507463240                       # Energy for activate commands per rank (pJ)
system.mem_ctrls1_1.preEnergy             17278126470                       # Energy for precharge commands per rank (pJ)
system.mem_ctrls1_1.readEnergy            29993519220                       # Energy for read commands per rank (pJ)
system.mem_ctrls1_1.writeEnergy           11438899200                       # Energy for write commands per rank (pJ)
system.mem_ctrls1_1.refreshEnergy        238101087120.000061                       # Energy for refresh commands per rank (pJ)
system.mem_ctrls1_1.actBackEnergy        208527011340                       # Energy for active background per rank (pJ)
system.mem_ctrls1_1.preBackEnergy          6228425280                       # Energy for precharge background per rank (pJ)
system.mem_ctrls1_1.actPowerDownEnergy   1015294811760                       # Energy for active power-down per rank (pJ)
system.mem_ctrls1_1.prePowerDownEnergy   103514916000                       # Energy for precharge power-down per rank (pJ)
system.mem_ctrls1_1.selfRefreshEnergy     17000149200                       # Energy for self refresh per rank (pJ)
system.mem_ctrls1_1.totalEnergy          1679909898630                       # Total energy per rank (pJ)
system.mem_ctrls1_1.averagePower           555.229991                       # Core power per rank (mW)
system.mem_ctrls1_1.totalIdleTime        2552034493125                       # Total Idle time Per DRAM Rank
system.mem_ctrls1_1.memoryStateTime::IDLE   3968990373                       # Time in different power states
system.mem_ctrls1_1.memoryStateTime::REF 100760872000                       # Time in different power states
system.mem_ctrls1_1.memoryStateTime::SREF  55944375398                       # Time in different power states
system.mem_ctrls1_1.memoryStateTime::PRE_PDN 269563652147                       # Time in different power states
system.mem_ctrls1_1.memoryStateTime::ACT 368843878150                       # Time in different power states
system.mem_ctrls1_1.memoryStateTime::ACT_PDN 2226529085106                       # Time in different power states
system.pwrStateResidencyTicks::UNDEFINED 146502599170248                       # Cumulative time (in ticks) in various power states
system.cpu.branchPred.lookups                       0                       # Number of BP lookups
system.cpu.branchPred.condPredicted                 0                       # Number of conditional branches predicted
system.cpu.branchPred.condIncorrect                 0                       # Number of conditional branches incorrect
system.cpu.branchPred.BTBLookups                    0                       # Number of BTB lookups
system.cpu.branchPred.BTBHits                       0                       # Number of BTB hits
system.cpu.branchPred.BTBCorrect                    0                       # Number of correct BTB predictions (this stat may not work properly.
system.cpu.branchPred.BTBHitPct                   nan                       # BTB Hit Percentage
system.cpu.branchPred.usedRAS                       0                       # Number of times the RAS was used to get a target.
system.cpu.branchPred.RASInCorrect                  0                       # Number of incorrect RAS predictions.
system.cpu.branchPred.indirectLookups               0                       # Number of indirect predictor lookups.
system.cpu.branchPred.indirectHits                  0                       # Number of indirect target hits.
system.cpu.branchPred.indirectMisses                0                       # Number of indirect misses.
system.cpu.branchPredindirectMispredicted            0                       # Number of mispredicted indirect branches.
system.cpu_voltage_domain.voltage                   1                       # Voltage in Volts
system.cpu_clk_domain.clock                       333                       # Clock period in ticks
system.cpu.dtb.fetch_hits                           0                       # ITB hits
system.cpu.dtb.fetch_misses                         0                       # ITB misses
system.cpu.dtb.fetch_acv                            0                       # ITB acv
system.cpu.dtb.fetch_accesses                       0                       # ITB accesses
system.cpu.dtb.read_hits                           13                       # DTB read hits
system.cpu.dtb.read_misses                          0                       # DTB read misses
system.cpu.dtb.read_acv                             0                       # DTB read access violations
system.cpu.dtb.read_accesses                       13                       # DTB read accesses
system.cpu.dtb.write_hits                           0                       # DTB write hits
system.cpu.dtb.write_misses                         0                       # DTB write misses
system.cpu.dtb.write_acv                            0                       # DTB write access violations
system.cpu.dtb.write_accesses                       0                       # DTB write accesses
system.cpu.dtb.data_hits                           13                       # DTB hits
system.cpu.dtb.data_misses                          0                       # DTB misses
system.cpu.dtb.data_acv                             0                       # DTB access violations
system.cpu.dtb.data_accesses                       13                       # DTB accesses
system.cpu.itb.fetch_hits                           4                       # ITB hits
system.cpu.itb.fetch_misses                         0                       # ITB misses
system.cpu.itb.fetch_acv                            0                       # ITB acv
system.cpu.itb.fetch_accesses                       4                       # ITB accesses
system.cpu.itb.read_hits                            0                       # DTB read hits
system.cpu.itb.read_misses                          0                       # DTB read misses
system.cpu.itb.read_acv                             0                       # DTB read access violations
system.cpu.itb.read_accesses                        0                       # DTB read accesses
system.cpu.itb.write_hits                           0                       # DTB write hits
system.cpu.itb.write_misses                         0                       # DTB write misses
system.cpu.itb.write_acv                            0                       # DTB write access violations
system.cpu.itb.write_accesses                       0                       # DTB write accesses
system.cpu.itb.data_hits                            0                       # DTB hits
system.cpu.itb.data_misses                          0                       # DTB misses
system.cpu.itb.data_acv                             0                       # DTB access violations
system.cpu.itb.data_accesses                        0                       # DTB accesses
system.cpu.workload.num_syscalls                    0                       # Number of system calls
system.cpu.pwrStateResidencyTicks::ON    3025610853174                       # Cumulative time (in ticks) in various power states
system.cpu.numCycles                              741                       # number of cpu cycles simulated
system.cpu.numWorkItemsStarted                      0                       # number of work items this cpu started
system.cpu.numWorkItemsCompleted                    0                       # number of work items this cpu completed
system.cpu.fetch.icacheStallCycles                 51                       # Number of cycles fetch is stalled on an Icache miss
system.cpu.fetch.Insts                             23                       # Number of instructions fetch has processed
system.cpu.fetch.Cycles                             3                       # Number of cycles fetch has run and was not squashing or blocked
system.cpu.fetch.SquashCycles                       3                       # Number of cycles fetch has spent squashing
system.cpu.fetch.PendingDrainCycles                 7                       # Number of cycles fetch has spent waiting on pipes to drain
system.cpu.fetch.CacheLines                         4                       # Number of cache lines fetched
system.cpu.fetch.IcacheSquashes                     2                       # Number of outstanding Icache misses that were squashed
system.cpu.fetch.rateDist::samples                 62                       # Number of instructions fetched each cycle (Total)
system.cpu.fetch.rateDist::mean              0.370968                       # Number of instructions fetched each cycle (Total)
system.cpu.fetch.rateDist::stdev             1.661856                       # Number of instructions fetched each cycle (Total)
[...]
system.switch_cpus_1.iq.fu_busy_rate         0.055145                       # FU busy rate (busy events/executed inst)
system.switch_cpus_1.iq.int_inst_queue_reads    684362502                       # Number of integer instruction queue reads
system.switch_cpus_1.iq.int_inst_queue_writes     79841915                       # Number of integer instruction queue writes
system.switch_cpus_1.iq.int_inst_queue_wakeup_accesses     72914379                       # Number of integer instruction queue wakeup accesses
system.switch_cpus_1.iq.fp_inst_queue_reads    313128388                       # Number of floating instruction queue reads
system.switch_cpus_1.iq.fp_inst_queue_writes    167481364                       # Number of floating instruction queue writes
system.switch_cpus_1.iq.fp_inst_queue_wakeup_accesses    142526991                       # Number of floating instruction queue wakeup accesses
system.switch_cpus_1.iq.int_alu_accesses     81280086                       # Number of integer alu accesses
system.switch_cpus_1.iq.fp_alu_accesses     160069097                       # Number of floating point alu accesses
system.switch_cpus_1.iew.lsq.thread0.forwLoads       563453                       # Number of loads that had data forwarded from stores
system.switch_cpus_1.iew.lsq.thread0.invAddrLoads            0                       # Number of loads ignored due to an invalid address
system.switch_cpus_1.iew.lsq.thread0.squashedLoads      9698965                       # Number of loads squashed
system.switch_cpus_1.iew.lsq.thread0.ignoredResponses           32                       # Number of memory responses ignored because the instruction is squashed
system.switch_cpus_1.iew.lsq.thread0.memOrderViolation          538                       # Number of memory ordering violations
system.switch_cpus_1.iew.lsq.thread0.squashedStores      1086743                       # Number of stores squashed
system.switch_cpus_1.iew.lsq.thread0.invAddrSwpfs            0                       # Number of software prefetches ignored due to an invalid address
system.switch_cpus_1.iew.lsq.thread0.blockedLoads            0                       # Number of blocked loads due to partial load-store forwarding
system.switch_cpus_1.iew.lsq.thread0.rescheduledLoads            0                       # Number of loads that were rescheduled
system.switch_cpus_1.iew.lsq.thread0.cacheBlocked     11897901                       # Number of times an access to memory failed due to the cache being blocked
system.switch_cpus_1.iew.iewIdleCycles              0                       # Number of cycles IEW is idle
system.switch_cpus_1.iew.iewSquashCycles       306913                       # Number of cycles IEW is squashing
system.switch_cpus_1.iew.iewBlockCycles      12869431                       # Number of cycles IEW is blocking
system.switch_cpus_1.iew.iewUnblockCycles    158696939                       # Number of cycles IEW is unblocking
system.switch_cpus_1.iew.iewDispatchedInsts    223847450                       # Number of instructions dispatched to IQ
system.switch_cpus_1.iew.iewDispSquashedInsts         1910                       # Number of squashed instructions skipped by dispatch
system.switch_cpus_1.iew.iewDispLoadInsts     93114573                       # Number of dispatched load instructions
system.switch_cpus_1.iew.iewDispStoreInsts     11679190                       # Number of dispatched store instructions
system.switch_cpus_1.iew.iewDispNonSpecInsts            0                       # Number of dispatched non-speculative instructions
system.switch_cpus_1.iew.iewIQFullEvents        21592                       # Number of times the IQ has become full, causing a stall
system.switch_cpus_1.iew.iewLSQFullEvents    158647995                       # Number of times the LSQ has become full, causing a stall
system.switch_cpus_1.iew.memOrderViolationEvents          538                       # Number of memory order violations
system.switch_cpus_1.iew.predictedTakenIncorrect         3860                       # Number of branches that were predicted taken incorrectly
system.switch_cpus_1.iew.predictedNotTakenIncorrect          454                       # Number of branches that were predicted not taken incorrectly
system.switch_cpus_1.iew.branchMispredicts         4314                       # Number of branch mispredicts detected at execute
system.switch_cpus_1.iew.iewExecutedInsts    228666992                       # Number of executed instructions
system.switch_cpus_1.iew.iewExecLoadInsts    104261878                       # Number of load instructions executed
system.switch_cpus_1.iew.iewExecSquashedInsts        68666                       # Number of squashed instructions skipped in execute
system.switch_cpus_1.iew.exec_swp                   0                       # number of swp insts executed
system.switch_cpus_1.iew.exec_nop              186046                       # number of nop insts executed
system.switch_cpus_1.iew.exec_refs          114982909                       # number of memory reference insts executed
system.switch_cpus_1.iew.exec_branches        1994182                       # Number of branches executed
system.switch_cpus_1.iew.exec_stores         10721031                       # Number of stores executed
system.switch_cpus_1.iew.exec_rate           0.433815                       # Inst execution rate
system.switch_cpus_1.iew.wb_sent            216528668                       # cumulative count of insts sent to commit
system.switch_cpus_1.iew.wb_count           215441370                       # cumulative count of insts written-back
system.switch_cpus_1.iew.wb_producers       142950448                       # num instructions producing a value
system.switch_cpus_1.iew.wb_consumers       149832559                       # num instructions consuming a value
system.switch_cpus_1.iew.wb_rate             0.408724                       # insts written-back per cycle
system.switch_cpus_1.iew.wb_fanout           0.954068                       # average fanout of values written-back
system.switch_cpus_1.commit.commitSquashedInsts     22581530                       # The number of squashed insts skipped by commit
system.switch_cpus_1.commit.branchMispredicts         4266                       # The number of times a branch was mispredicted
system.switch_cpus_1.commit.committed_per_cycle::samples    524092941                       # Number of insts commited each cycle
system.switch_cpus_1.commit.committed_per_cycle::mean     0.381966                       # Number of insts commited each cycle
system.switch_cpus_1.commit.committed_per_cycle::stdev     1.549543                       # Number of insts commited each cycle
system.switch_cpus_1.commit.committed_per_cycle::underflows            0      0.00%      0.00% # Number of insts commited each cycle
system.switch_cpus_1.commit.committed_per_cycle::0    480926695     91.76%     91.76% # Number of insts commited each cycle
system.switch_cpus_1.commit.committed_per_cycle::1     12526802      2.39%     94.15% # Number of insts commited each cycle
system.switch_cpus_1.commit.committed_per_cycle::2      4337358      0.83%     94.98% # Number of insts commited each cycle
system.switch_cpus_1.commit.committed_per_cycle::3      2638324      0.50%     95.48% # Number of insts commited each cycle
system.switch_cpus_1.commit.committed_per_cycle::4      2275371      0.43%     95.92% # Number of insts commited each cycle
system.switch_cpus_1.commit.committed_per_cycle::5      1620106      0.31%     96.23% # Number of insts commited each cycle
system.switch_cpus_1.commit.committed_per_cycle::6      1671937      0.32%     96.55% # Number of insts commited each cycle
system.switch_cpus_1.commit.committed_per_cycle::7       935395      0.18%     96.73% # Number of insts commited each cycle
system.switch_cpus_1.commit.committed_per_cycle::8     17160953      3.27%    100.00% # Number of insts commited each cycle
system.switch_cpus_1.commit.committed_per_cycle::overflows            0      0.00%    100.00% # Number of insts commited each cycle
system.switch_cpus_1.commit.committed_per_cycle::min_value            0                       # Number of insts commited each cycle
system.switch_cpus_1.commit.committed_per_cycle::max_value            8                       # Number of insts commited each cycle
system.switch_cpus_1.commit.committed_per_cycle::total    524092941                       # Number of insts commited each cycle
system.switch_cpus_1.commit.committedInsts    200185515                       # Number of instructions committed
system.switch_cpus_1.commit.committedOps    200185515                       # Number of ops (including micro ops) committed
system.switch_cpus_1.commit.swp_count               0                       # Number of s/w prefetches committed
system.switch_cpus_1.commit.refs             94008030                       # Number of memory references committed
system.switch_cpus_1.commit.loads            83415586                       # Number of loads committed
system.switch_cpus_1.commit.membars                 0                       # Number of memory barriers committed
system.switch_cpus_1.commit.branches          1780705                       # Number of branches committed
system.switch_cpus_1.commit.fp_insts        133556284                       # Number of committed floating point instructions.
system.switch_cpus_1.commit.int_insts       133992906                       # Number of committed integer instructions.
system.switch_cpus_1.commit.function_calls            0                       # Number of function calls committed.
system.switch_cpus_1.commit.op_class_0::No_OpClass       185513      0.09%      0.09% # Class of committed instruction
system.switch_cpus_1.commit.op_class_0::IntAlu     39964775     19.96%     20.06% # Class of committed instruction
system.switch_cpus_1.commit.op_class_0::IntMult        96303      0.05%     20.10% # Class of committed instruction
system.switch_cpus_1.commit.op_class_0::IntDiv            0      0.00%     20.10% # Class of committed instruction
system.switch_cpus_1.commit.op_class_0::FloatAdd     26372358     13.17%     33.28% # Class of committed instruction
system.switch_cpus_1.commit.op_class_0::FloatCmp            0      0.00%     33.28% # Class of committed instruction
system.switch_cpus_1.commit.op_class_0::FloatCvt            0      0.00%     33.28% # Class of committed instruction
system.switch_cpus_1.commit.op_class_0::FloatMult     39558536     19.76%     53.04% # Class of committed instruction
system.switch_cpus_1.commit.op_class_0::FloatMultAcc            0      0.00%     53.04% # Class of committed instruction
system.switch_cpus_1.commit.op_class_0::FloatDiv            0      0.00%     53.04% # Class of committed instruction
system.switch_cpus_1.commit.op_class_0::FloatMisc            0      0.00%     53.04% # Class of committed instruction
system.switch_cpus_1.commit.op_class_0::FloatSqrt            0      0.00%     53.04% # Class of committed instruction
system.switch_cpus_1.commit.op_class_0::SimdAdd            0      0.00%     53.04% # Class of committed instruction
system.switch_cpus_1.commit.op_class_0::SimdAddAcc            0      0.00%     53.04% # Class of committed instruction
system.switch_cpus_1.commit.op_class_0::SimdAlu            0      0.00%     53.04% # Class of committed instruction
system.switch_cpus_1.commit.op_class_0::SimdCmp            0      0.00%     53.04% # Class of committed instruction
system.switch_cpus_1.commit.op_class_0::SimdCvt            0      0.00%     53.04% # Class of committed instruction
system.switch_cpus_1.commit.op_class_0::SimdMisc            0      0.00%     53.04% # Class of committed instruction
system.switch_cpus_1.commit.op_class_0::SimdMult            0      0.00%     53.04% # Class of committed instruction
system.switch_cpus_1.commit.op_class_0::SimdMultAcc            0      0.00%     53.04% # Class of committed instruction
system.switch_cpus_1.commit.op_class_0::SimdShift            0      0.00%     53.04% # Class of committed instruction
system.switch_cpus_1.commit.op_class_0::SimdShiftAcc            0      0.00%     53.04% # Class of committed instruction
system.switch_cpus_1.commit.op_class_0::SimdSqrt            0      0.00%     53.04% # Class of committed instruction
system.switch_cpus_1.commit.op_class_0::SimdFloatAdd            0      0.00%     53.04% # Class of committed instruction
system.switch_cpus_1.commit.op_class_0::SimdFloatAlu            0      0.00%     53.04% # Class of committed instruction
system.switch_cpus_1.commit.op_class_0::SimdFloatCmp            0      0.00%     53.04% # Class of committed instruction
system.switch_cpus_1.commit.op_class_0::SimdFloatCvt            0      0.00%     53.04% # Class of committed instruction
system.switch_cpus_1.commit.op_class_0::SimdFloatDiv            0      0.00%     53.04% # Class of committed instruction
system.switch_cpus_1.commit.op_class_0::SimdFloatMisc            0      0.00%     53.04% # Class of committed instruction
system.switch_cpus_1.commit.op_class_0::SimdFloatMult            0      0.00%     53.04% # Class of committed instruction
system.switch_cpus_1.commit.op_class_0::SimdFloatMultAcc            0      0.00%     53.04% # Class of committed instruction
system.switch_cpus_1.commit.op_class_0::SimdFloatSqrt            0      0.00%     53.04% # Class of committed instruction
system.switch_cpus_1.commit.op_class_0::MemRead     24580982     12.28%     65.32% # Class of committed instruction
system.switch_cpus_1.commit.op_class_0::MemWrite      1801658      0.90%     66.22% # Class of committed instruction
system.switch_cpus_1.commit.op_class_0::FloatMemRead     58834604     29.39%     95.61% # Class of committed instruction
system.switch_cpus_1.commit.op_class_0::FloatMemWrite      8790786      4.39%    100.00% # Class of committed instruction
system.switch_cpus_1.commit.op_class_0::IprAccess            0      0.00%    100.00% # Class of committed instruction
system.switch_cpus_1.commit.op_class_0::InstPrefetch            0      0.00%    100.00% # Class of committed instruction
system.switch_cpus_1.commit.op_class_0::total    200185515                       # Class of committed instruction
system.switch_cpus_1.commit.bw_lim_events     17160953                       # number cycles where commit BW limit reached
system.switch_cpus_1.rob.rob_reads          725770160                       # The number of ROB reads
system.switch_cpus_1.rob.rob_writes         448492766                       # The number of ROB writes
system.switch_cpus_1.timesIdled                   375                       # Number of times that the entire CPU went into an idle state and unscheduled itself
system.switch_cpus_1.idleCycles                 55166                       # Total number of cycles that the CPU has spent unscheduled due to idling
system.switch_cpus_1.committedInsts         200000002                       # Number of Instructions Simulated
system.switch_cpus_1.committedOps           200000002                       # Number of Ops (including micro ops) Simulated
system.switch_cpus_1.cpi                     2.635534                       # CPI: Cycles Per Instruction
system.switch_cpus_1.cpi_total               2.635534                       # CPI: Total CPI of All Threads
system.switch_cpus_1.ipc                     0.379430                       # IPC: Instructions Per Cycle
system.switch_cpus_1.ipc_total               0.379430                       # IPC: Total IPC of All Threads
system.switch_cpus_1.int_regfile_reads      181554258                       # number of integer regfile reads
system.switch_cpus_1.int_regfile_writes      69118932                       # number of integer regfile writes
system.switch_cpus_1.fp_regfile_reads       147039093                       # number of floating regfile reads
system.switch_cpus_1.fp_regfile_writes      133634403                       # number of floating regfile writes
system.tol3bus.snoop_filter.tot_requests     39183901                       # Total number of requests made to the snoop filter.
system.tol3bus.snoop_filter.hit_single_requests     19589621                       # Number of requests hitting in the snoop filter with a single holder of the requested data.
system.tol3bus.snoop_filter.hit_multi_requests            0                       # Number of requests hitting in the snoop filter with multiple (>1) holders of the requested data.
system.tol3bus.snoop_filter.tot_snoops         521485                       # Total number of snoops made to the snoop filter.
system.tol3bus.snoop_filter.hit_single_snoops       521485                       # Number of snoops hitting in the snoop filter with a single holder of the requested data.
system.tol3bus.snoop_filter.hit_multi_snoops            0                       # Number of snoops hitting in the snoop filter with multiple (>1) holders of the requested data.
system.tol3bus.pwrStateResidencyTicks::UNDEFINED 146502599170248                       # Cumulative time (in ticks) in various power states
system.tol3bus.trans_dist::ReadResp          19456429                       # Transaction distribution
system.tol3bus.trans_dist::WritebackDirty     17801574                       # Transaction distribution
system.tol3bus.trans_dist::CleanEvict        18808312                       # Transaction distribution
system.tol3bus.trans_dist::UpgradeReq               5                       # Transaction distribution
system.tol3bus.trans_dist::UpgradeResp              5                       # Transaction distribution
system.tol3bus.trans_dist::ReadExReq           137851                       # Transaction distribution
system.tol3bus.trans_dist::ReadExResp          137851                       # Transaction distribution
system.tol3bus.trans_dist::ReadSharedReq     19456429                       # Transaction distribution
system.tol3bus.pkt_count_system.cpu.l2.mem_side::system.l3.cpu_side     58778186                       # Packet count per connected master and slave (bytes)
system.tol3bus.pkt_size_system.cpu.l2.mem_side::system.l3.cpu_side   1832130496                       # Cumulative packet size per connected master and slave (bytes)
system.tol3bus.snoops                        17020270                       # Total snoops (count)
system.tol3bus.snoopTraffic                 561204160                       # Total snoop traffic (bytes)
system.tol3bus.snoop_fanout::samples         36614555                       # Request fanout histogram
system.tol3bus.snoop_fanout::mean            0.014243                       # Request fanout histogram
system.tol3bus.snoop_fanout::stdev           0.118489                       # Request fanout histogram
system.tol3bus.snoop_fanout::underflows             0      0.00%      0.00% # Request fanout histogram
system.tol3bus.snoop_fanout::0               36093070     98.58%     98.58% # Request fanout histogram
system.tol3bus.snoop_fanout::1                 521485      1.42%    100.00% # Request fanout histogram
system.tol3bus.snoop_fanout::overflows              0      0.00%    100.00% # Request fanout histogram
system.tol3bus.snoop_fanout::min_value              0                       # Request fanout histogram
system.tol3bus.snoop_fanout::max_value              1                       # Request fanout histogram
system.tol3bus.snoop_fanout::total           36614555                       # Request fanout histogram
system.tol3bus.reqLayer0.occupancy        16056147780                       # Layer occupancy (ticks)
system.tol3bus.reqLayer0.utilization              0.5                       # Layer utilization (%)
system.tol3bus.respLayer0.occupancy       13049792145                       # Layer occupancy (ticks)
system.tol3bus.respLayer0.utilization             0.4                       # Layer utilization (%)

---------- End Simulation Statistics   ----------
