
---------- Begin Simulation Statistics ----------
sim_seconds                                  2.470992                       # Number of seconds simulated
sim_ticks                                2470991772096                       # Number of ticks simulated
final_tick                               129423988296828                       # Number of ticks from beginning of simulation (restored from checkpoints and never reset)
sim_freq                                 1000000000000                       # Frequency of simulated ticks
host_inst_rate                                 199600                       # Simulator instruction rate (inst/s)
host_op_rate                                   199600                       # Simulator op (including micro ops) rate (op/s)
host_tick_rate                              411007950                       # Simulator tick rate (ticks/s)
host_mem_usage                                2435708                       # Number of bytes of host memory used
host_seconds                                  6012.03                       # Real time elapsed on the host
sim_insts                                  1200000003                       # Number of instructions simulated
sim_ops                                    1200000003                       # Number of ops (including micro ops) simulated
system.voltage_domain.voltage                       1                       # Voltage in Volts
system.clk_domain.clock                          1000                       # Clock period in ticks
system.mem_ctrls0.pwrStateResidencyTicks::UNDEFINED 129423988296828                       # Cumulative time (in ticks) in various power states
system.mem_ctrls0.bytes_read::cpu.inst            128                       # Number of bytes read from this memory
system.mem_ctrls0.bytes_read::switch_cpus.inst       173824                       # Number of bytes read from this memory
system.mem_ctrls0.bytes_read::switch_cpus.data    377567872                       # Number of bytes read from this memory
system.mem_ctrls0.bytes_read::switch_cpus_1.inst        61440                       # Number of bytes read from this memory
system.mem_ctrls0.bytes_read::switch_cpus_1.data     85057408                       # Number of bytes read from this memory
system.mem_ctrls0.bytes_read::total         462860672                       # Number of bytes read from this memory
system.mem_ctrls0.bytes_inst_read::cpu.inst          128                       # Number of instructions bytes read from this memory
system.mem_ctrls0.bytes_inst_read::switch_cpus.inst       173824                       # Number of instructions bytes read from this memory
system.mem_ctrls0.bytes_inst_read::switch_cpus_1.inst        61440                       # Number of instructions bytes read from this memory
system.mem_ctrls0.bytes_inst_read::total       235392                       # Number of instructions bytes read from this memory
system.mem_ctrls0.bytes_written::writebacks    193328320                       # Number of bytes written to this memory
system.mem_ctrls0.bytes_written::total      193328320                       # Number of bytes written to this memory
system.mem_ctrls0.num_reads::cpu.inst               2                       # Number of read requests responded to by this memory
system.mem_ctrls0.num_reads::switch_cpus.inst         2716                       # Number of read requests responded to by this memory
system.mem_ctrls0.num_reads::switch_cpus.data      5899498                       # Number of read requests responded to by this memory
system.mem_ctrls0.num_reads::switch_cpus_1.inst          960                       # Number of read requests responded to by this memory
system.mem_ctrls0.num_reads::switch_cpus_1.data      1329022                       # Number of read requests responded to by this memory
system.mem_ctrls0.num_reads::total            7232198                       # Number of read requests responded to by this memory
system.mem_ctrls0.num_writes::writebacks      3020755                       # Number of write requests responded to by this memory
system.mem_ctrls0.num_writes::total           3020755                       # Number of write requests responded to by this memory
system.mem_ctrls0.bw_read::cpu.inst                52                       # Total read bandwidth from this memory (bytes/s)
system.mem_ctrls0.bw_read::switch_cpus.inst        70346                       # Total read bandwidth from this memory (bytes/s)
system.mem_ctrls0.bw_read::switch_cpus.data    152800133                       # Total read bandwidth from this memory (bytes/s)
system.mem_ctrls0.bw_read::switch_cpus_1.inst        24865                       # Total read bandwidth from this memory (bytes/s)
system.mem_ctrls0.bw_read::switch_cpus_1.data     34422376                       # Total read bandwidth from this memory (bytes/s)
system.mem_ctrls0.bw_read::total            187317771                       # Total read bandwidth from this memory (bytes/s)
system.mem_ctrls0.bw_inst_read::cpu.inst           52                       # Instruction read bandwidth from this memory (bytes/s)
system.mem_ctrls0.bw_inst_read::switch_cpus.inst        70346                       # Instruction read bandwidth from this memory (bytes/s)
system.mem_ctrls0.bw_inst_read::switch_cpus_1.inst        24865                       # Instruction read bandwidth from this memory (bytes/s)
system.mem_ctrls0.bw_inst_read::total           95262                       # Instruction read bandwidth from this memory (bytes/s)
system.mem_ctrls0.bw_write::writebacks       78239160                       # Write bandwidth from this memory (bytes/s)
system.mem_ctrls0.bw_write::total            78239160                       # Write bandwidth from this memory (bytes/s)
system.mem_ctrls0.bw_total::writebacks       78239160                       # Total bandwidth to/from this memory (bytes/s)
system.mem_ctrls0.bw_total::cpu.inst               52                       # Total bandwidth to/from this memory (bytes/s)
system.mem_ctrls0.bw_total::switch_cpus.inst        70346                       # Total bandwidth to/from this memory (bytes/s)
system.mem_ctrls0.bw_total::switch_cpus.data    152800133                       # Total bandwidth to/from this memory (bytes/s)
system.mem_ctrls0.bw_total::switch_cpus_1.inst        24865                       # Total bandwidth to/from this memory (bytes/s)
system.mem_ctrls0.bw_total::switch_cpus_1.data     34422376                       # Total bandwidth to/from this memory (bytes/s)
system.mem_ctrls0.bw_total::total           265556931                       # Total bandwidth to/from this memory (bytes/s)
system.mem_ctrls0.readReqs                    7232198                       # Number of read requests accepted
system.mem_ctrls0.writeReqs                   3020755                       # Number of write requests accepted
system.mem_ctrls0.readBursts                  7232198                       # Number of DRAM read bursts, including those serviced by the write queue
system.mem_ctrls0.writeBursts                 3020755                       # Number of DRAM write bursts, including those merged in the write queue
system.mem_ctrls0.bytesReadDRAM             462620480                       # Total number of bytes read from DRAM
system.mem_ctrls0.bytesReadWrQ                 240192                       # Total number of bytes read from write queue
system.mem_ctrls0.bytesWritten              193327040                       # Total number of bytes written to DRAM
system.mem_ctrls0.bytesReadSys              462860672                       # Total read bytes from the system interface side
system.mem_ctrls0.bytesWrittenSys           193328320                       # Total written bytes from the system interface side
system.mem_ctrls0.servicedByWrQ                  3753                       # Number of DRAM read bursts serviced by the write queue
system.mem_ctrls0.mergedWrBursts                    0                       # Number of DRAM write bursts merged with an existing one
system.mem_ctrls0.neitherReadNorWriteReqs            0                       # Number of requests that are neither read nor write
system.mem_ctrls0.perBankRdBursts::0           445544                       # Per bank write bursts
system.mem_ctrls0.perBankRdBursts::1           458547                       # Per bank write bursts
system.mem_ctrls0.perBankRdBursts::2           456536                       # Per bank write bursts
system.mem_ctrls0.perBankRdBursts::3           439391                       # Per bank write bursts
system.mem_ctrls0.perBankRdBursts::4           438531                       # Per bank write bursts
system.mem_ctrls0.perBankRdBursts::5           457286                       # Per bank write bursts
system.mem_ctrls0.perBankRdBursts::6           466392                       # Per bank write bursts
system.mem_ctrls0.perBankRdBursts::7           464413                       # Per bank write bursts
system.mem_ctrls0.perBankRdBursts::8           474345                       # Per bank write bursts
system.mem_ctrls0.perBankRdBursts::9           455468                       # Per bank write bursts
system.mem_ctrls0.perBankRdBursts::10          439919                       # Per bank write bursts
system.mem_ctrls0.perBankRdBursts::11          437797                       # Per bank write bursts
system.mem_ctrls0.perBankRdBursts::12          435807                       # Per bank write bursts
system.mem_ctrls0.perBankRdBursts::13          454608                       # Per bank write bursts
system.mem_ctrls0.perBankRdBursts::14          454957                       # Per bank write bursts
system.mem_ctrls0.perBankRdBursts::15          448904                       # Per bank write bursts
system.mem_ctrls0.perBankWrBursts::0           187500                       # Per bank write bursts
system.mem_ctrls0.perBankWrBursts::1           188346                       # Per bank write bursts
system.mem_ctrls0.perBankWrBursts::2           191417                       # Per bank write bursts
system.mem_ctrls0.perBankWrBursts::3           180037                       # Per bank write bursts
system.mem_ctrls0.perBankWrBursts::4           182648                       # Per bank write bursts
system.mem_ctrls0.perBankWrBursts::5           190787                       # Per bank write bursts
system.mem_ctrls0.perBankWrBursts::6           199017                       # Per bank write bursts
system.mem_ctrls0.perBankWrBursts::7           197085                       # Per bank write bursts
system.mem_ctrls0.perBankWrBursts::8           198694                       # Per bank write bursts
system.mem_ctrls0.perBankWrBursts::9           187980                       # Per bank write bursts
system.mem_ctrls0.perBankWrBursts::10          185317                       # Per bank write bursts
system.mem_ctrls0.perBankWrBursts::11          186739                       # Per bank write bursts
system.mem_ctrls0.perBankWrBursts::12          179394                       # Per bank write bursts
system.mem_ctrls0.perBankWrBursts::13          187980                       # Per bank write bursts
system.mem_ctrls0.perBankWrBursts::14          192036                       # Per bank write bursts
system.mem_ctrls0.perBankWrBursts::15          185758                       # Per bank write bursts
system.mem_ctrls0.numRdRetry                        0                       # Number of times read queue was full causing retry
system.mem_ctrls0.numWrRetry                        0                       # Number of times write queue was full causing retry
system.mem_ctrls0.totGap                 2470991721147                       # Total gap between requests
system.mem_ctrls0.readPktSize::0                    0                       # Read request sizes (log2)
system.mem_ctrls0.readPktSize::1                    0                       # Read request sizes (log2)
system.mem_ctrls0.readPktSize::2                    0                       # Read request sizes (log2)
system.mem_ctrls0.readPktSize::3                    0                       # Read request sizes (log2)
system.mem_ctrls0.readPktSize::4                    0                       # Read request sizes (log2)
system.mem_ctrls0.readPktSize::5                    0                       # Read request sizes (log2)
system.mem_ctrls0.readPktSize::6              7232198                       # Read request sizes (log2)
system.mem_ctrls0.writePktSize::0                   0                       # Write request sizes (log2)
system.mem_ctrls0.writePktSize::1                   0                       # Write request sizes (log2)
system.mem_ctrls0.writePktSize::2                   0                       # Write request sizes (log2)
system.mem_ctrls0.writePktSize::3                   0                       # Write request sizes (log2)
system.mem_ctrls0.writePktSize::4                   0                       # Write request sizes (log2)
system.mem_ctrls0.writePktSize::5                   0                       # Write request sizes (log2)
system.mem_ctrls0.writePktSize::6             3020755                       # Write request sizes (log2)
system.mem_ctrls0.rdQLenPdf::0                6939820                       # What read queue length does an incoming req see
system.mem_ctrls0.rdQLenPdf::1                 254715                       # What read queue length does an incoming req see
system.mem_ctrls0.rdQLenPdf::2                  31748                       # What read queue length does an incoming req see
system.mem_ctrls0.rdQLenPdf::3                   2162                       # What read queue length does an incoming req see
system.mem_ctrls0.rdQLenPdf::4                      0                       # What read queue length does an incoming req see
system.mem_ctrls0.rdQLenPdf::5                      0                       # What read queue length does an incoming req see
system.mem_ctrls0.rdQLenPdf::6                      0                       # What read queue length does an incoming req see
system.mem_ctrls0.rdQLenPdf::7                      0                       # What read queue length does an incoming req see
system.mem_ctrls0.rdQLenPdf::8                      0                       # What read queue length does an incoming req see
system.mem_ctrls0.rdQLenPdf::9                      0                       # What read queue length does an incoming req see
system.mem_ctrls0.rdQLenPdf::10                     0                       # What read queue length does an incoming req see
system.mem_ctrls0.rdQLenPdf::11                     0                       # What read queue length does an incoming req see
system.mem_ctrls0.rdQLenPdf::12                     0                       # What read queue length does an incoming req see
system.mem_ctrls0.rdQLenPdf::13                     0                       # What read queue length does an incoming req see
system.mem_ctrls0.rdQLenPdf::14                     0                       # What read queue length does an incoming req see
system.mem_ctrls0.rdQLenPdf::15                     0                       # What read queue length does an incoming req see
system.mem_ctrls0.rdQLenPdf::16                     0                       # What read queue length does an incoming req see
system.mem_ctrls0.rdQLenPdf::17                     0                       # What read queue length does an incoming req see
system.mem_ctrls0.rdQLenPdf::18                     0                       # What read queue length does an incoming req see
system.mem_ctrls0.rdQLenPdf::19                     0                       # What read queue length does an incoming req see
system.mem_ctrls0.rdQLenPdf::20                     0                       # What read queue length does an incoming req see
system.mem_ctrls0.rdQLenPdf::21                     0                       # What read queue length does an incoming req see
system.mem_ctrls0.rdQLenPdf::22                     0                       # What read queue length does an incoming req see
system.mem_ctrls0.rdQLenPdf::23                     0                       # What read queue length does an incoming req see
system.mem_ctrls0.rdQLenPdf::24                     0                       # What read queue length does an incoming req see
system.mem_ctrls0.rdQLenPdf::25                     0                       # What read queue length does an incoming req see
system.mem_ctrls0.rdQLenPdf::26                     0                       # What read queue length does an incoming req see
system.mem_ctrls0.rdQLenPdf::27                     0                       # What read queue length does an incoming req see
system.mem_ctrls0.rdQLenPdf::28                     0                       # What read queue length does an incoming req see
system.mem_ctrls0.rdQLenPdf::29                     0                       # What read queue length does an incoming req see
system.mem_ctrls0.rdQLenPdf::30                     0                       # What read queue length does an incoming req see
system.mem_ctrls0.rdQLenPdf::31                     0                       # What read queue length does an incoming req see
system.mem_ctrls0.wrQLenPdf::0                      2                       # What write queue length does an incoming req see
system.mem_ctrls0.wrQLenPdf::1                      2                       # What write queue length does an incoming req see
system.mem_ctrls0.wrQLenPdf::2                      2                       # What write queue length does an incoming req see
system.mem_ctrls0.wrQLenPdf::3                      2                       # What write queue length does an incoming req see
system.mem_ctrls0.wrQLenPdf::4                      2                       # What write queue length does an incoming req see
system.mem_ctrls0.wrQLenPdf::5                      2                       # What write queue length does an incoming req see
system.mem_ctrls0.wrQLenPdf::6                      2                       # What write queue length does an incoming req see
system.mem_ctrls0.wrQLenPdf::7                      2                       # What write queue length does an incoming req see
system.mem_ctrls0.wrQLenPdf::8                      2                       # What write queue length does an incoming req see
system.mem_ctrls0.wrQLenPdf::9                      2                       # What write queue length does an incoming req see
system.mem_ctrls0.wrQLenPdf::10                     2                       # What write queue length does an incoming req see
system.mem_ctrls0.wrQLenPdf::11                     2                       # What write queue length does an incoming req see
system.mem_ctrls0.wrQLenPdf::12                     2                       # What write queue length does an incoming req see
system.mem_ctrls0.wrQLenPdf::13                     2                       # What write queue length does an incoming req see
system.mem_ctrls0.wrQLenPdf::14                     2                       # What write queue length does an incoming req see
system.mem_ctrls0.wrQLenPdf::15                102786                       # What write queue length does an incoming req see
system.mem_ctrls0.wrQLenPdf::16                106491                       # What write queue length does an incoming req see
system.mem_ctrls0.wrQLenPdf::17                171992                       # What write queue length does an incoming req see
system.mem_ctrls0.wrQLenPdf::18                175844                       # What write queue length does an incoming req see
system.mem_ctrls0.wrQLenPdf::19                175960                       # What write queue length does an incoming req see
system.mem_ctrls0.wrQLenPdf::20                175847                       # What write queue length does an incoming req see
system.mem_ctrls0.wrQLenPdf::21                175706                       # What write queue length does an incoming req see
system.mem_ctrls0.wrQLenPdf::22                175708                       # What write queue length does an incoming req see
system.mem_ctrls0.wrQLenPdf::23                175685                       # What write queue length does an incoming req see
system.mem_ctrls0.wrQLenPdf::24                175632                       # What write queue length does an incoming req see
system.mem_ctrls0.wrQLenPdf::25                175582                       # What write queue length does an incoming req see
system.mem_ctrls0.wrQLenPdf::26                175566                       # What write queue length does an incoming req see
system.mem_ctrls0.wrQLenPdf::27                175869                       # What write queue length does an incoming req see
system.mem_ctrls0.wrQLenPdf::28                175917                       # What write queue length does an incoming req see
system.mem_ctrls0.wrQLenPdf::29                178297                       # What write queue length does an incoming req see
system.mem_ctrls0.wrQLenPdf::30                177116                       # What write queue length does an incoming req see
system.mem_ctrls0.wrQLenPdf::31                175357                       # What write queue length does an incoming req see
system.mem_ctrls0.wrQLenPdf::32                175298                       # What write queue length does an incoming req see
system.mem_ctrls0.wrQLenPdf::33                    67                       # What write queue length does an incoming req see
system.mem_ctrls0.wrQLenPdf::34                     5                       # What write queue length does an incoming req see
system.mem_ctrls0.wrQLenPdf::35                     0                       # What write queue length does an incoming req see
system.mem_ctrls0.wrQLenPdf::36                     0                       # What write queue length does an incoming req see
system.mem_ctrls0.wrQLenPdf::37                     0                       # What write queue length does an incoming req see
system.mem_ctrls0.wrQLenPdf::38                     0                       # What write queue length does an incoming req see
system.mem_ctrls0.wrQLenPdf::39                     0                       # What write queue length does an incoming req see
system.mem_ctrls0.wrQLenPdf::40                     0                       # What write queue length does an incoming req see
system.mem_ctrls0.wrQLenPdf::41                     0                       # What write queue length does an incoming req see
system.mem_ctrls0.wrQLenPdf::42                     0                       # What write queue length does an incoming req see
system.mem_ctrls0.wrQLenPdf::43                     0                       # What write queue length does an incoming req see
system.mem_ctrls0.wrQLenPdf::44                     0                       # What write queue length does an incoming req see
system.mem_ctrls0.wrQLenPdf::45                     0                       # What write queue length does an incoming req see
system.mem_ctrls0.wrQLenPdf::46                     0                       # What write queue length does an incoming req see
system.mem_ctrls0.wrQLenPdf::47                     0                       # What write queue length does an incoming req see
system.mem_ctrls0.wrQLenPdf::48                     0                       # What write queue length does an incoming req see
system.mem_ctrls0.wrQLenPdf::49                     0                       # What write queue length does an incoming req see
system.mem_ctrls0.wrQLenPdf::50                     0                       # What write queue length does an incoming req see
system.mem_ctrls0.wrQLenPdf::51                     0                       # What write queue length does an incoming req see
system.mem_ctrls0.wrQLenPdf::52                     0                       # What write queue length does an incoming req see
system.mem_ctrls0.wrQLenPdf::53                     0                       # What write queue length does an incoming req see
system.mem_ctrls0.wrQLenPdf::54                     0                       # What write queue length does an incoming req see
system.mem_ctrls0.wrQLenPdf::55                     0                       # What write queue length does an incoming req see
system.mem_ctrls0.wrQLenPdf::56                     0                       # What write queue length does an incoming req see
system.mem_ctrls0.wrQLenPdf::57                     0                       # What write queue length does an incoming req see
system.mem_ctrls0.wrQLenPdf::58                     0                       # What write queue length does an incoming req see
system.mem_ctrls0.wrQLenPdf::59                     0                       # What write queue length does an incoming req see
system.mem_ctrls0.wrQLenPdf::60                     0                       # What write queue length does an incoming req see
system.mem_ctrls0.wrQLenPdf::61                     0                       # What write queue length does an incoming req see
system.mem_ctrls0.wrQLenPdf::62                     0                       # What write queue length does an incoming req see
system.mem_ctrls0.wrQLenPdf::63                     0                       # What write queue length does an incoming req see
system.mem_ctrls0.bytesPerActivate::samples      6415865                       # Bytes accessed per row activation
system.mem_ctrls0.bytesPerActivate::mean   102.238291                       # Bytes accessed per row activation
system.mem_ctrls0.bytesPerActivate::gmean    83.672774                       # Bytes accessed per row activation
system.mem_ctrls0.bytesPerActivate::stdev    96.948573                       # Bytes accessed per row activation
system.mem_ctrls0.bytesPerActivate::0-127      4850066     75.59%     75.59% # Bytes accessed per row activation
system.mem_ctrls0.bytesPerActivate::128-255      1081164     16.85%     92.45% # Bytes accessed per row activation
system.mem_ctrls0.bytesPerActivate::256-383       267977      4.18%     96.62% # Bytes accessed per row activation
system.mem_ctrls0.bytesPerActivate::384-511       116221      1.81%     98.43% # Bytes accessed per row activation
system.mem_ctrls0.bytesPerActivate::512-639        57501      0.90%     99.33% # Bytes accessed per row activation
system.mem_ctrls0.bytesPerActivate::640-767        23767      0.37%     99.70% # Bytes accessed per row activation
system.mem_ctrls0.bytesPerActivate::768-895         9622      0.15%     99.85% # Bytes accessed per row activation
system.mem_ctrls0.bytesPerActivate::896-1023         5180      0.08%     99.93% # Bytes accessed per row activation
system.mem_ctrls0.bytesPerActivate::1024-1151         4367      0.07%    100.00% # Bytes accessed per row activation
system.mem_ctrls0.bytesPerActivate::total      6415865                       # Bytes accessed per row activation
system.mem_ctrls0.rdPerTurnAround::samples       175286                       # Reads before turning the bus around for writes
system.mem_ctrls0.rdPerTurnAround::mean     41.237931                       # Reads before turning the bus around for writes
system.mem_ctrls0.rdPerTurnAround::gmean    39.556253                       # Reads before turning the bus around for writes
system.mem_ctrls0.rdPerTurnAround::stdev    57.431507                       # Reads before turning the bus around for writes
system.mem_ctrls0.rdPerTurnAround::0-1023       175285    100.00%    100.00% # Reads before turning the bus around for writes
system.mem_ctrls0.rdPerTurnAround::23552-24575            1      0.00%    100.00% # Reads before turning the bus around for writes
system.mem_ctrls0.rdPerTurnAround::total       175286                       # Reads before turning the bus around for writes
system.mem_ctrls0.wrPerTurnAround::samples       175286                       # Writes before turning the bus around for reads
system.mem_ctrls0.wrPerTurnAround::mean     17.233179                       # Writes before turning the bus around for reads
system.mem_ctrls0.wrPerTurnAround::gmean    17.201711                       # Writes before turning the bus around for reads
system.mem_ctrls0.wrPerTurnAround::stdev     1.036434                       # Writes before turning the bus around for reads
system.mem_ctrls0.wrPerTurnAround::16           70058     39.97%     39.97% # Writes before turning the bus around for reads
system.mem_ctrls0.wrPerTurnAround::17            2165      1.24%     41.20% # Writes before turning the bus around for reads
system.mem_ctrls0.wrPerTurnAround::18           95678     54.58%     95.79% # Writes before turning the bus around for reads
system.mem_ctrls0.wrPerTurnAround::19            6939      3.96%     99.75% # Writes before turning the bus around for reads
system.mem_ctrls0.wrPerTurnAround::20             416      0.24%     99.98% # Writes before turning the bus around for reads
system.mem_ctrls0.wrPerTurnAround::21              29      0.02%    100.00% # Writes before turning the bus around for reads
system.mem_ctrls0.wrPerTurnAround::28               1      0.00%    100.00% # Writes before turning the bus around for reads
system.mem_ctrls0.wrPerTurnAround::total       175286                       # Writes before turning the bus around for reads
system.mem_ctrls0.totQLat                151209407429                       # Total ticks spent queuing
system.mem_ctrls0.totMemAccLat           286742751179                       # Total ticks spent from burst creation until serviced by the DRAM
system.mem_ctrls0.totBusLat               36142225000                       # Total ticks spent in databus transfers
system.mem_ctrls0.avgQLat                    20918.66                       # Average queueing delay per DRAM burst
system.mem_ctrls0.avgBusLat                   5000.00                       # Average bus latency per DRAM burst
system.mem_ctrls0.avgMemAccLat               39668.66                       # Average memory access latency per DRAM burst
system.mem_ctrls0.avgRdBW                      187.22                       # Average DRAM read bandwidth in MiByte/s
system.mem_ctrls0.avgWrBW                       78.24                       # Average achieved write bandwidth in MiByte/s
system.mem_ctrls0.avgRdBWSys                   187.32                       # Average system read bandwidth in MiByte/s
system.mem_ctrls0.avgWrBWSys                    78.24                       # Average system write bandwidth in MiByte/s
system.mem_ctrls0.peakBW                     12800.00                       # Theoretical peak bandwidth in MiByte/s
system.mem_ctrls0.busUtil                        2.07                       # Data bus utilization in percentage
system.mem_ctrls0.busUtilRead                    1.46                       # Data bus utilization in percentage for reads
system.mem_ctrls0.busUtilWrite                   0.61                       # Data bus utilization in percentage for writes
system.mem_ctrls0.avgRdQLen                      1.02                       # Average read queue length when enqueuing
system.mem_ctrls0.avgWrQLen                     24.81                       # Average write queue length when enqueuing
system.mem_ctrls0.readRowHits                 3783315                       # Number of row buffer hits during reads
system.mem_ctrls0.writeRowHits                  49996                       # Number of row buffer hits during writes
system.mem_ctrls0.readRowHitRate                52.34                       # Row buffer hit rate for reads
system.mem_ctrls0.writeRowHitRate                1.66                       # Row buffer hit rate for writes
system.mem_ctrls0.avgGap                    241002.93                       # Average gap between requests
system.mem_ctrls0.pageHitRate                   37.40                       # Row buffer hit rate, read and write combined
system.mem_ctrls0_0.actEnergy             22965602940                       # Energy for activate commands per rank (pJ)
system.mem_ctrls0_0.preEnergy             12206507445                       # Energy for precharge commands per rank (pJ)
system.mem_ctrls0_0.readEnergy            25894209600                       # Energy for read commands per rank (pJ)
system.mem_ctrls0_0.writeEnergy            7917889140                       # Energy for write commands per rank (pJ)
system.mem_ctrls0_0.refreshEnergy        196029593760.000031                       # Energy for refresh commands per rank (pJ)
system.mem_ctrls0_0.actBackEnergy        156357642780                       # Energy for active background per rank (pJ)
system.mem_ctrls0_0.preBackEnergy          4680084480                       # Energy for precharge background per rank (pJ)
system.mem_ctrls0_0.actPowerDownEnergy   837305969370                       # Energy for active power-down per rank (pJ)
system.mem_ctrls0_0.prePowerDownEnergy    99951458880                       # Energy for precharge power-down per rank (pJ)
system.mem_ctrls0_0.selfRefreshEnergy      7085333940                       # Energy for self refresh per rank (pJ)
system.mem_ctrls0_0.totalEnergy          1370417615055                       # Total energy per rank (pJ)
system.mem_ctrls0_0.averagePower           554.602254                       # Core power per rank (mW)
system.mem_ctrls0_0.totalIdleTime        2115867156645                       # Total Idle time Per DRAM Rank
system.mem_ctrls0_0.memoryStateTime::IDLE   2968985141                       # Time in different power states
system.mem_ctrls0_0.memoryStateTime::REF  82951364000                       # Time in different power states
system.mem_ctrls0_0.memoryStateTime::SREF  19375060240                       # Time in different power states
system.mem_ctrls0_0.memoryStateTime::PRE_PDN 260291908201                       # Time in different power states
system.mem_ctrls0_0.memoryStateTime::ACT 269204100262                       # Time in different power states
system.mem_ctrls0_0.memoryStateTime::ACT_PDN 1836200354252                       # Time in different power states
system.mem_ctrls0_1.actEnergy             22843701720                       # Energy for activate commands per rank (pJ)
system.mem_ctrls0_1.preEnergy             12141700230                       # Energy for precharge commands per rank (pJ)
system.mem_ctrls0_1.readEnergy            25716887700                       # Energy for read commands per rank (pJ)
system.mem_ctrls0_1.writeEnergy            7850347560                       # Energy for write commands per rank (pJ)
system.mem_ctrls0_1.refreshEnergy        196086755280.000031                       # Energy for refresh commands per rank (pJ)
system.mem_ctrls0_1.actBackEnergy        156261254070                       # Energy for active background per rank (pJ)
system.mem_ctrls0_1.preBackEnergy          4697721600                       # Energy for precharge background per rank (pJ)
system.mem_ctrls0_1.actPowerDownEnergy   834808472760                       # Energy for active power-down per rank (pJ)
system.mem_ctrls0_1.prePowerDownEnergy   101747948640                       # Energy for precharge power-down per rank (pJ)
system.mem_ctrls0_1.selfRefreshEnergy      7445317095                       # Energy for self refresh per rank (pJ)
system.mem_ctrls0_1.totalEnergy          1369620941325                       # Total energy per rank (pJ)
system.mem_ctrls0_1.averagePower           554.279845                       # Core power per rank (mW)
system.mem_ctrls0_1.totalIdleTime        2116043067203                       # Total Idle time Per DRAM Rank
system.mem_ctrls0_1.memoryStateTime::IDLE   3033958790                       # Time in different power states
system.mem_ctrls0_1.memoryStateTime::REF  82976822000                       # Time in different power states
system.mem_ctrls0_1.memoryStateTime::SREF  20344649925                       # Time in different power states
system.mem_ctrls0_1.memoryStateTime::PRE_PDN 264967240754                       # Time in different power states
system.mem_ctrls0_1.memoryStateTime::ACT 268937851617                       # Time in different power states
system.mem_ctrls0_1.memoryStateTime::ACT_PDN 1830731249010                       # Time in different power states
system.mem_ctrls1.pwrStateResidencyTicks::UNDEFINED 129423988296828                       # Cumulative time (in ticks) in various power states
system.mem_ctrls1.bytes_read::cpu.data            128                       # Number of bytes read from this memory
system.mem_ctrls1.bytes_read::switch_cpus.inst       186752                       # Number of bytes read from this memory
system.mem_ctrls1.bytes_read::switch_cpus.data    378477696                       # Number of bytes read from this memory
system.mem_ctrls1.bytes_read::switch_cpus_1.inst        59520                       # Number of bytes read from this memory
system.mem_ctrls1.bytes_read::switch_cpus_1.data     85250944                       # Number of bytes read from this memory
system.mem_ctrls1.bytes_read::total         463975040                       # Number of bytes read from this memory
system.mem_ctrls1.bytes_inst_read::switch_cpus.inst       186752                       # Number of instructions bytes read from this memory
system.mem_ctrls1.bytes_inst_read::switch_cpus_1.inst        59520                       # Number of instructions bytes read from this memory
system.mem_ctrls1.bytes_inst_read::total       246272                       # Number of instructions bytes read from this memory
system.mem_ctrls1.bytes_written::writebacks    192995328                       # Number of bytes written to this memory
system.mem_ctrls1.bytes_written::total      192995328                       # Number of bytes written to this memory
system.mem_ctrls1.num_reads::cpu.data               2                       # Number of read requests responded to by this memory
system.mem_ctrls1.num_reads::switch_cpus.inst         2918                       # Number of read requests responded to by this memory
system.mem_ctrls1.num_reads::switch_cpus.data      5913714                       # Number of read requests responded to by this memory
system.mem_ctrls1.num_reads::switch_cpus_1.inst          930                       # Number of read requests responded to by this memory
system.mem_ctrls1.num_reads::switch_cpus_1.data      1332046                       # Number of read requests responded to by this memory
system.mem_ctrls1.num_reads::total            7249610                       # Number of read requests responded to by this memory
system.mem_ctrls1.num_writes::writebacks      3015552                       # Number of write requests responded to by this memory
system.mem_ctrls1.num_writes::total           3015552                       # Number of write requests responded to by this memory
system.mem_ctrls1.bw_read::cpu.data                52                       # Total read bandwidth from this memory (bytes/s)
system.mem_ctrls1.bw_read::switch_cpus.inst        75578                       # Total read bandwidth from this memory (bytes/s)
system.mem_ctrls1.bw_read::switch_cpus.data    153168335                       # Total read bandwidth from this memory (bytes/s)
system.mem_ctrls1.bw_read::switch_cpus_1.inst        24087                       # Total read bandwidth from this memory (bytes/s)
system.mem_ctrls1.bw_read::switch_cpus_1.data     34500699                       # Total read bandwidth from this memory (bytes/s)
system.mem_ctrls1.bw_read::total            187768751                       # Total read bandwidth from this memory (bytes/s)
system.mem_ctrls1.bw_inst_read::switch_cpus.inst        75578                       # Instruction read bandwidth from this memory (bytes/s)
system.mem_ctrls1.bw_inst_read::switch_cpus_1.inst        24087                       # Instruction read bandwidth from this memory (bytes/s)
system.mem_ctrls1.bw_inst_read::total           99665                       # Instruction read bandwidth from this memory (bytes/s)
system.mem_ctrls1.bw_write::writebacks       78104399                       # Write bandwidth from this memory (bytes/s)
system.mem_ctrls1.bw_write::total            78104399                       # Write bandwidth from this memory (bytes/s)
system.mem_ctrls1.bw_total::writebacks       78104399                       # Total bandwidth to/from this memory (bytes/s)
system.mem_ctrls1.bw_total::cpu.data               52                       # Total bandwidth to/from this memory (bytes/s)
system.mem_ctrls1.bw_total::switch_cpus.inst        75578                       # Total bandwidth to/from this memory (bytes/s)
system.mem_ctrls1.bw_total::switch_cpus.data    153168335                       # Total bandwidth to/from this memory (bytes/s)
system.mem_ctrls1.bw_total::switch_cpus_1.inst        24087                       # Total bandwidth to/from this memory (bytes/s)
system.mem_ctrls1.bw_total::switch_cpus_1.data     34500699                       # Total bandwidth to/from this memory (bytes/s)
system.mem_ctrls1.bw_total::total           265873151                       # Total bandwidth to/from this memory (bytes/s)
system.mem_ctrls1.readReqs                    7249610                       # Number of read requests accepted
system.mem_ctrls1.writeReqs                   3015552                       # Number of write requests accepted
system.mem_ctrls1.readBursts                  7249610                       # Number of DRAM read bursts, including those serviced by the write queue
system.mem_ctrls1.writeBursts                 3015552                       # Number of DRAM write bursts, including those merged in the write queue
system.mem_ctrls1.bytesReadDRAM             463729664                       # Total number of bytes read from DRAM
system.mem_ctrls1.bytesReadWrQ                 245376                       # Total number of bytes read from write queue
system.mem_ctrls1.bytesWritten              192993792                       # Total number of bytes written to DRAM
system.mem_ctrls1.bytesReadSys              463975040                       # Total read bytes from the system interface side
system.mem_ctrls1.bytesWrittenSys           192995328                       # Total written bytes from the system interface side
system.mem_ctrls1.servicedByWrQ                  3834                       # Number of DRAM read bursts serviced by the write queue
system.mem_ctrls1.mergedWrBursts                    0                       # Number of DRAM write bursts merged with an existing one
system.mem_ctrls1.neitherReadNorWriteReqs            0                       # Number of requests that are neither read nor write
system.mem_ctrls1.perBankRdBursts::0           448786                       # Per bank write bursts
system.mem_ctrls1.perBankRdBursts::1           453852                       # Per bank write bursts
system.mem_ctrls1.perBankRdBursts::2           455030                       # Per bank write bursts
system.mem_ctrls1.perBankRdBursts::3           443581                       # Per bank write bursts
system.mem_ctrls1.perBankRdBursts::4           439152                       # Per bank write bursts
system.mem_ctrls1.perBankRdBursts::5           456297                       # Per bank write bursts
system.mem_ctrls1.perBankRdBursts::6           469845                       # Per bank write bursts
system.mem_ctrls1.perBankRdBursts::7           462592                       # Per bank write bursts
system.mem_ctrls1.perBankRdBursts::8           479510                       # Per bank write bursts
system.mem_ctrls1.perBankRdBursts::9           460526                       # Per bank write bursts
system.mem_ctrls1.perBankRdBursts::10          441516                       # Per bank write bursts
system.mem_ctrls1.perBankRdBursts::11          440457                       # Per bank write bursts
system.mem_ctrls1.perBankRdBursts::12          438108                       # Per bank write bursts
system.mem_ctrls1.perBankRdBursts::13          452303                       # Per bank write bursts
system.mem_ctrls1.perBankRdBursts::14          457024                       # Per bank write bursts
system.mem_ctrls1.perBankRdBursts::15          447197                       # Per bank write bursts
system.mem_ctrls1.perBankWrBursts::0           187027                       # Per bank write bursts
system.mem_ctrls1.perBankWrBursts::1           185943                       # Per bank write bursts
system.mem_ctrls1.perBankWrBursts::2           188007                       # Per bank write bursts
system.mem_ctrls1.perBankWrBursts::3           182279                       # Per bank write bursts
system.mem_ctrls1.perBankWrBursts::4           185228                       # Per bank write bursts
system.mem_ctrls1.perBankWrBursts::5           188361                       # Per bank write bursts
system.mem_ctrls1.perBankWrBursts::6           196540                       # Per bank write bursts
system.mem_ctrls1.perBankWrBursts::7           191434                       # Per bank write bursts
system.mem_ctrls1.perBankWrBursts::8           200981                       # Per bank write bursts
system.mem_ctrls1.perBankWrBursts::9           187304                       # Per bank write bursts
system.mem_ctrls1.perBankWrBursts::10          188744                       # Per bank write bursts
system.mem_ctrls1.perBankWrBursts::11          186103                       # Per bank write bursts
system.mem_ctrls1.perBankWrBursts::12          181415                       # Per bank write bursts
system.mem_ctrls1.perBankWrBursts::13          187875                       # Per bank write bursts
system.mem_ctrls1.perBankWrBursts::14          191097                       # Per bank write bursts
system.mem_ctrls1.perBankWrBursts::15          187190                       # Per bank write bursts
system.mem_ctrls1.numRdRetry                        0                       # Number of times read queue was full causing retry
system.mem_ctrls1.numWrRetry                        0                       # Number of times write queue was full causing retry
system.mem_ctrls1.totGap                 2470991369499                       # Total gap between requests
system.mem_ctrls1.readPktSize::0                    0                       # Read request sizes (log2)
system.mem_ctrls1.readPktSize::1                    0                       # Read request sizes (log2)
system.mem_ctrls1.readPktSize::2                    0                       # Read request sizes (log2)
system.mem_ctrls1.readPktSize::3                    0                       # Read request sizes (log2)
system.mem_ctrls1.readPktSize::4                    0                       # Read request sizes (log2)
system.mem_ctrls1.readPktSize::5                    0                       # Read request sizes (log2)
system.mem_ctrls1.readPktSize::6              7249610                       # Read request sizes (log2)
system.mem_ctrls1.writePktSize::0                   0                       # Write request sizes (log2)
system.mem_ctrls1.writePktSize::1                   0                       # Write request sizes (log2)
system.mem_ctrls1.writePktSize::2                   0                       # Write request sizes (log2)
system.mem_ctrls1.writePktSize::3                   0                       # Write request sizes (log2)
system.mem_ctrls1.writePktSize::4                   0                       # Write request sizes (log2)
system.mem_ctrls1.writePktSize::5                   0                       # Write request sizes (log2)
system.mem_ctrls1.writePktSize::6             3015552                       # Write request sizes (log2)
system.mem_ctrls1.rdQLenPdf::0                6955645                       # What read queue length does an incoming req see
system.mem_ctrls1.rdQLenPdf::1                 255554                       # What read queue length does an incoming req see
system.mem_ctrls1.rdQLenPdf::2                  32460                       # What read queue length does an incoming req see
system.mem_ctrls1.rdQLenPdf::3                   2117                       # What read queue length does an incoming req see
system.mem_ctrls1.rdQLenPdf::4                      0                       # What read queue length does an incoming req see
system.mem_ctrls1.rdQLenPdf::5                      0                       # What read queue length does an incoming req see
system.mem_ctrls1.rdQLenPdf::6                      0                       # What read queue length does an incoming req see
system.mem_ctrls1.rdQLenPdf::7                      0                       # What read queue length does an incoming req see
system.mem_ctrls1.rdQLenPdf::8                      0                       # What read queue length does an incoming req see
system.mem_ctrls1.rdQLenPdf::9                      0                       # What read queue length does an incoming req see
system.mem_ctrls1.rdQLenPdf::10                     0                       # What read queue length does an incoming req see
system.mem_ctrls1.rdQLenPdf::11                     0                       # What read queue length does an incoming req see
system.mem_ctrls1.rdQLenPdf::12                     0                       # What read queue length does an incoming req see
system.mem_ctrls1.rdQLenPdf::13                     0                       # What read queue length does an incoming req see
system.mem_ctrls1.rdQLenPdf::14                     0                       # What read queue length does an incoming req see
system.mem_ctrls1.rdQLenPdf::15                     0                       # What read queue length does an incoming req see
system.mem_ctrls1.rdQLenPdf::16                     0                       # What read queue length does an incoming req see
system.mem_ctrls1.rdQLenPdf::17                     0                       # What read queue length does an incoming req see
system.mem_ctrls1.rdQLenPdf::18                     0                       # What read queue length does an incoming req see
system.mem_ctrls1.rdQLenPdf::19                     0                       # What read queue length does an incoming req see
system.mem_ctrls1.rdQLenPdf::20                     0                       # What read queue length does an incoming req see
system.mem_ctrls1.rdQLenPdf::21                     0                       # What read queue length does an incoming req see
system.mem_ctrls1.rdQLenPdf::22                     0                       # What read queue length does an incoming req see
system.mem_ctrls1.rdQLenPdf::23                     0                       # What read queue length does an incoming req see
system.mem_ctrls1.rdQLenPdf::24                     0                       # What read queue length does an incoming req see
system.mem_ctrls1.rdQLenPdf::25                     0                       # What read queue length does an incoming req see
system.mem_ctrls1.rdQLenPdf::26                     0                       # What read queue length does an incoming req see
system.mem_ctrls1.rdQLenPdf::27                     0                       # What read queue length does an incoming req see
system.mem_ctrls1.rdQLenPdf::28                     0                       # What read queue length does an incoming req see
system.mem_ctrls1.rdQLenPdf::29                     0                       # What read queue length does an incoming req see
system.mem_ctrls1.rdQLenPdf::30                     0                       # What read queue length does an incoming req see
system.mem_ctrls1.rdQLenPdf::31                     0                       # What read queue length does an incoming req see
system.mem_ctrls1.wrQLenPdf::0                      2                       # What write queue length does an incoming req see
system.mem_ctrls1.wrQLenPdf::1                      2                       # What write queue length does an incoming req see
system.mem_ctrls1.wrQLenPdf::2                      2                       # What write queue length does an incoming req see
system.mem_ctrls1.wrQLenPdf::3                      2                       # What write queue length does an incoming req see
system.mem_ctrls1.wrQLenPdf::4                      2                       # What write queue length does an incoming req see
system.mem_ctrls1.wrQLenPdf::5                      2                       # What write queue length does an incoming req see
system.mem_ctrls1.wrQLenPdf::6                      2                       # What write queue length does an incoming req see
system.mem_ctrls1.wrQLenPdf::7                      2                       # What write queue length does an incoming req see
system.mem_ctrls1.wrQLenPdf::8                      2                       # What write queue length does an incoming req see
system.mem_ctrls1.wrQLenPdf::9                      2                       # What write queue length does an incoming req see
system.mem_ctrls1.wrQLenPdf::10                     2                       # What write queue length does an incoming req see
system.mem_ctrls1.wrQLenPdf::11                     2                       # What write queue length does an incoming req see
system.mem_ctrls1.wrQLenPdf::12                     2                       # What write queue length does an incoming req see
system.mem_ctrls1.wrQLenPdf::13                     2                       # What write queue length does an incoming req see
system.mem_ctrls1.wrQLenPdf::14                     2                       # What write queue length does an incoming req see
system.mem_ctrls1.wrQLenPdf::15                102401                       # What write queue length does an incoming req see
system.mem_ctrls1.wrQLenPdf::16                106236                       # What write queue length does an incoming req see
system.mem_ctrls1.wrQLenPdf::17                171745                       # What write queue length does an incoming req see
system.mem_ctrls1.wrQLenPdf::18                175495                       # What write queue length does an incoming req see
system.mem_ctrls1.wrQLenPdf::19                175628                       # What write queue length does an incoming req see
system.mem_ctrls1.wrQLenPdf::20                175504                       # What write queue length does an incoming req see
system.mem_ctrls1.wrQLenPdf::21                175447                       # What write queue length does an incoming req see
system.mem_ctrls1.wrQLenPdf::22                175417                       # What write queue length does an incoming req see
system.mem_ctrls1.wrQLenPdf::23                175423                       # What write queue length does an incoming req see
system.mem_ctrls1.wrQLenPdf::24                175346                       # What write queue length does an incoming req see
system.mem_ctrls1.wrQLenPdf::25                175315                       # What write queue length does an incoming req see
system.mem_ctrls1.wrQLenPdf::26                175286                       # What write queue length does an incoming req see
system.mem_ctrls1.wrQLenPdf::27                175561                       # What write queue length does an incoming req see
system.mem_ctrls1.wrQLenPdf::28                175640                       # What write queue length does an incoming req see
system.mem_ctrls1.wrQLenPdf::29                178093                       # What write queue length does an incoming req see
system.mem_ctrls1.wrQLenPdf::30                176845                       # What write queue length does an incoming req see
system.mem_ctrls1.wrQLenPdf::31                175068                       # What write queue length does an incoming req see
system.mem_ctrls1.wrQLenPdf::32                175031                       # What write queue length does an incoming req see
system.mem_ctrls1.wrQLenPdf::33                    36                       # What write queue length does an incoming req see
system.mem_ctrls1.wrQLenPdf::34                     5                       # What write queue length does an incoming req see
system.mem_ctrls1.wrQLenPdf::35                     0                       # What write queue length does an incoming req see
system.mem_ctrls1.wrQLenPdf::36                     0                       # What write queue length does an incoming req see
system.mem_ctrls1.wrQLenPdf::37                     0                       # What write queue length does an incoming req see
system.mem_ctrls1.wrQLenPdf::38                     0                       # What write queue length does an incoming req see
system.mem_ctrls1.wrQLenPdf::39                     0                       # What write queue length does an incoming req see
system.mem_ctrls1.wrQLenPdf::40                     0                       # What write queue length does an incoming req see
system.mem_ctrls1.wrQLenPdf::41                     0                       # What write queue length does an incoming req see
system.mem_ctrls1.wrQLenPdf::42                     0                       # What write queue length does an incoming req see
system.mem_ctrls1.wrQLenPdf::43                     0                       # What write queue length does an incoming req see
system.mem_ctrls1.wrQLenPdf::44                     0                       # What write queue length does an incoming req see
system.mem_ctrls1.wrQLenPdf::45                     0                       # What write queue length does an incoming req see
system.mem_ctrls1.wrQLenPdf::46                     0                       # What write queue length does an incoming req see
system.mem_ctrls1.wrQLenPdf::47                     0                       # What write queue length does an incoming req see
system.mem_ctrls1.wrQLenPdf::48                     0                       # What write queue length does an incoming req see
system.mem_ctrls1.wrQLenPdf::49                     0                       # What write queue length does an incoming req see
system.mem_ctrls1.wrQLenPdf::50                     0                       # What write queue length does an incoming req see
system.mem_ctrls1.wrQLenPdf::51                     0                       # What write queue length does an incoming req see
system.mem_ctrls1.wrQLenPdf::52                     0                       # What write queue length does an incoming req see
system.mem_ctrls1.wrQLenPdf::53                     0                       # What write queue length does an incoming req see
system.mem_ctrls1.wrQLenPdf::54                     0                       # What write queue length does an incoming req see
system.mem_ctrls1.wrQLenPdf::55                     0                       # What write queue length does an incoming req see
system.mem_ctrls1.wrQLenPdf::56                     0                       # What write queue length does an incoming req see
system.mem_ctrls1.wrQLenPdf::57                     0                       # What write queue length does an incoming req see
system.mem_ctrls1.wrQLenPdf::58                     0                       # What write queue length does an incoming req see
system.mem_ctrls1.wrQLenPdf::59                     0                       # What write queue length does an incoming req see
system.mem_ctrls1.wrQLenPdf::60                     0                       # What write queue length does an incoming req see
system.mem_ctrls1.wrQLenPdf::61                     0                       # What write queue length does an incoming req see
system.mem_ctrls1.wrQLenPdf::62                     0                       # What write queue length does an incoming req see
system.mem_ctrls1.wrQLenPdf::63                     0                       # What write queue length does an incoming req see
system.mem_ctrls1.bytesPerActivate::samples      6411644                       # Bytes accessed per row activation
system.mem_ctrls1.bytesPerActivate::mean   102.426528                       # Bytes accessed per row activation
system.mem_ctrls1.bytesPerActivate::gmean    83.756969                       # Bytes accessed per row activation
system.mem_ctrls1.bytesPerActivate::stdev    97.269827                       # Bytes accessed per row activation
system.mem_ctrls1.bytesPerActivate::0-127      4842462     75.53%     75.53% # Bytes accessed per row activation
system.mem_ctrls1.bytesPerActivate::128-255      1081787     16.87%     92.40% # Bytes accessed per row activation
system.mem_ctrls1.bytesPerActivate::256-383       268778      4.19%     96.59% # Bytes accessed per row activation
system.mem_ctrls1.bytesPerActivate::384-511       116439      1.82%     98.41% # Bytes accessed per row activation
system.mem_ctrls1.bytesPerActivate::512-639        58933      0.92%     99.33% # Bytes accessed per row activation
system.mem_ctrls1.bytesPerActivate::640-767        24159      0.38%     99.70% # Bytes accessed per row activation
system.mem_ctrls1.bytesPerActivate::768-895         9485      0.15%     99.85% # Bytes accessed per row activation
system.mem_ctrls1.bytesPerActivate::896-1023         5293      0.08%     99.93% # Bytes accessed per row activation
system.mem_ctrls1.bytesPerActivate::1024-1151         4308      0.07%    100.00% # Bytes accessed per row activation
system.mem_ctrls1.bytesPerActivate::total      6411644                       # Bytes accessed per row activation
system.mem_ctrls1.rdPerTurnAround::samples       175015                       # Reads before turning the bus around for writes
system.mem_ctrls1.rdPerTurnAround::mean     41.400783                       # Reads before turning the bus around for writes
system.mem_ctrls1.rdPerTurnAround::gmean    39.719472                       # Reads before turning the bus around for writes
system.mem_ctrls1.rdPerTurnAround::stdev    59.800190                       # Reads before turning the bus around for writes
system.mem_ctrls1.rdPerTurnAround::0-1023       175014    100.00%    100.00% # Reads before turning the bus around for writes
system.mem_ctrls1.rdPerTurnAround::23552-24575            1      0.00%    100.00% # Reads before turning the bus around for writes
system.mem_ctrls1.rdPerTurnAround::total       175015                       # Reads before turning the bus around for writes
system.mem_ctrls1.wrPerTurnAround::samples       175015                       # Writes before turning the bus around for reads
system.mem_ctrls1.wrPerTurnAround::mean     17.230112                       # Writes before turning the bus around for reads
system.mem_ctrls1.wrPerTurnAround::gmean    17.198689                       # Writes before turning the bus around for reads
system.mem_ctrls1.wrPerTurnAround::stdev     1.035597                       # Writes before turning the bus around for reads
system.mem_ctrls1.wrPerTurnAround::16           70129     40.07%     40.07% # Writes before turning the bus around for reads
system.mem_ctrls1.wrPerTurnAround::17            2199      1.26%     41.33% # Writes before turning the bus around for reads
system.mem_ctrls1.wrPerTurnAround::18           95425     54.52%     95.85% # Writes before turning the bus around for reads
system.mem_ctrls1.wrPerTurnAround::19            6846      3.91%     99.76% # Writes before turning the bus around for reads
system.mem_ctrls1.wrPerTurnAround::20             384      0.22%     99.98% # Writes before turning the bus around for reads
system.mem_ctrls1.wrPerTurnAround::21              30      0.02%    100.00% # Writes before turning the bus around for reads
system.mem_ctrls1.wrPerTurnAround::22               1      0.00%    100.00% # Writes before turning the bus around for reads
system.mem_ctrls1.wrPerTurnAround::25               1      0.00%    100.00% # Writes before turning the bus around for reads
system.mem_ctrls1.wrPerTurnAround::total       175015                       # Writes before turning the bus around for reads
system.mem_ctrls1.totQLat                151342433533                       # Total ticks spent queuing
system.mem_ctrls1.totMemAccLat           287200733533                       # Total ticks spent from burst creation until serviced by the DRAM
system.mem_ctrls1.totBusLat               36228880000                       # Total ticks spent in databus transfers
system.mem_ctrls1.avgQLat                    20886.99                       # Average queueing delay per DRAM burst
system.mem_ctrls1.avgBusLat                   5000.00                       # Average bus latency per DRAM burst
system.mem_ctrls1.avgMemAccLat               39636.99                       # Average memory access latency per DRAM burst
system.mem_ctrls1.avgRdBW                      187.67                       # Average DRAM read bandwidth in MiByte/s
system.mem_ctrls1.avgWrBW                       78.10                       # Average achieved write bandwidth in MiByte/s
system.mem_ctrls1.avgRdBWSys                   187.77                       # Average system read bandwidth in MiByte/s
system.mem_ctrls1.avgWrBWSys                    78.10                       # Average system write bandwidth in MiByte/s
system.mem_ctrls1.peakBW                     12800.00                       # Theoretical peak bandwidth in MiByte/s
system.mem_ctrls1.busUtil                        2.08                       # Data bus utilization in percentage
system.mem_ctrls1.busUtilRead                    1.47                       # Data bus utilization in percentage for reads
system.mem_ctrls1.busUtilWrite                   0.61                       # Data bus utilization in percentage for writes
system.mem_ctrls1.avgRdQLen                      1.02                       # Average read queue length when enqueuing
system.mem_ctrls1.avgWrQLen                     24.80                       # Average write queue length when enqueuing
system.mem_ctrls1.readRowHits                 3799748                       # Number of row buffer hits during reads
system.mem_ctrls1.writeRowHits                  49902                       # Number of row buffer hits during writes
system.mem_ctrls1.readRowHitRate                52.44                       # Row buffer hit rate for reads
system.mem_ctrls1.writeRowHitRate                1.65                       # Row buffer hit rate for writes
system.mem_ctrls1.avgGap                    240716.26                       # Average gap between requests
system.mem_ctrls1.pageHitRate                   37.52                       # Row buffer hit rate, read and write combined
system.mem_ctrls1_0.actEnergy             22886320380                       # Energy for activate commands per rank (pJ)
system.mem_ctrls1_0.preEnergy             12164352585                       # Energy for precharge commands per rank (pJ)
system.mem_ctrls1_0.readEnergy            25912023900                       # Energy for read commands per rank (pJ)
system.mem_ctrls1_0.writeEnergy            7855155180                       # Energy for write commands per rank (pJ)
system.mem_ctrls1_0.refreshEnergy        195944773440.000031                       # Energy for refresh commands per rank (pJ)
system.mem_ctrls1_0.actBackEnergy        156026735550                       # Energy for active background per rank (pJ)
system.mem_ctrls1_0.preBackEnergy          4669020000                       # Energy for precharge background per rank (pJ)
system.mem_ctrls1_0.actPowerDownEnergy   837446653350                       # Energy for active power-down per rank (pJ)
system.mem_ctrls1_0.prePowerDownEnergy   100057046880                       # Energy for precharge power-down per rank (pJ)
system.mem_ctrls1_0.selfRefreshEnergy      7057630380                       # Energy for self refresh per rank (pJ)
system.mem_ctrls1_0.totalEnergy          1370040542985                       # Total energy per rank (pJ)
system.mem_ctrls1_0.averagePower           554.449655                       # Core power per rank (mW)
system.mem_ctrls1_0.totalIdleTime        2116631330835                       # Total Idle time Per DRAM Rank
system.mem_ctrls1_0.memoryStateTime::IDLE   2933585472                       # Time in different power states
system.mem_ctrls1_0.memoryStateTime::REF  82914584000                       # Time in different power states
system.mem_ctrls1_0.memoryStateTime::SREF  19551600487                       # Time in different power states
system.mem_ctrls1_0.memoryStateTime::PRE_PDN 260564475333                       # Time in different power states
system.mem_ctrls1_0.memoryStateTime::ACT 268511481693                       # Time in different power states
system.mem_ctrls1_0.memoryStateTime::ACT_PDN 1836516045111                       # Time in different power states
system.mem_ctrls1_1.actEnergy             22892889180                       # Energy for activate commands per rank (pJ)
system.mem_ctrls1_1.preEnergy             12167836395                       # Energy for precharge commands per rank (pJ)
system.mem_ctrls1_1.readEnergy            25822816740                       # Energy for read commands per rank (pJ)
system.mem_ctrls1_1.writeEnergy            7885900980                       # Energy for write commands per rank (pJ)
system.mem_ctrls1_1.refreshEnergy        196107653040.000031                       # Energy for refresh commands per rank (pJ)
system.mem_ctrls1_1.actBackEnergy        156224028510                       # Energy for active background per rank (pJ)
system.mem_ctrls1_1.preBackEnergy          4703937120                       # Energy for precharge background per rank (pJ)
system.mem_ctrls1_1.actPowerDownEnergy   834836418150                       # Energy for active power-down per rank (pJ)
system.mem_ctrls1_1.prePowerDownEnergy   101637593760                       # Energy for precharge power-down per rank (pJ)
system.mem_ctrls1_1.selfRefreshEnergy      7558398330                       # Energy for self refresh per rank (pJ)
system.mem_ctrls1_1.totalEnergy          1369861539825                       # Total energy per rank (pJ)
system.mem_ctrls1_1.averagePower           554.377213                       # Core power per rank (mW)
system.mem_ctrls1_1.totalIdleTime        2116096032690                       # Total Idle time Per DRAM Rank
system.mem_ctrls1_1.memoryStateTime::IDLE   3057147747                       # Time in different power states
system.mem_ctrls1_1.memoryStateTime::REF  82986292000                       # Time in different power states
system.mem_ctrls1_1.memoryStateTime::SREF  20629008862                       # Time in different power states
system.mem_ctrls1_1.memoryStateTime::PRE_PDN 264684009979                       # Time in different power states
system.mem_ctrls1_1.memoryStateTime::ACT 268852044453                       # Time in different power states
system.mem_ctrls1_1.memoryStateTime::ACT_PDN 1830783269055                       # Time in different power states
system.pwrStateResidencyTicks::UNDEFINED 129423988296828                       # Cumulative time (in ticks) in various power states
system.cpu.branchPred.lookups                       3                       # Number of BP lookups
system.cpu.branchPred.condPredicted                 3                       # Number of conditional branches predicted
system.cpu.branchPred.condIncorrect                 1                       # Number of conditional branches incorrect
system.cpu.branchPred.BTBLookups                    0                       # Number of BTB lookups
system.cpu.branchPred.BTBHits                       0                       # Number of BTB hits
system.cpu.branchPred.BTBCorrect                    0                       # Number of correct BTB predictions (this stat may not work properly.
system.cpu.branchPred.BTBHitPct                   nan                       # BTB Hit Percentage
system.cpu.branchPred.usedRAS                       0                       # Number of times the RAS was used to get a target.
system.cpu.branchPred.RASInCorrect                  0                       # Number of incorrect RAS predictions.
system.cpu.branchPred.indirectLookups               0                       # Number of indirect predictor lookups.
system.cpu.branchPred.indirectHits                  0                       # Number of indirect target hits.
system.cpu.branchPred.indirectMisses                0                       # Number of indirect misses.
system.cpu.branchPredindirectMispredicted            0                       # Number of mispredicted indirect branches.
system.cpu_voltage_domain.voltage                   1                       # Voltage in Volts
system.cpu_clk_domain.clock                       333                       # Clock period in ticks
system.cpu.dtb.fetch_hits                           0                       # ITB hits
system.cpu.dtb.fetch_misses                         0                       # ITB misses
system.cpu.dtb.fetch_acv                            0                       # ITB acv
system.cpu.dtb.fetch_accesses                       0                       # ITB accesses
system.cpu.dtb.read_hits                            2                       # DTB read hits
system.cpu.dtb.read_misses                          0                       # DTB read misses
system.cpu.dtb.read_acv                             0                       # DTB read access violations
system.cpu.dtb.read_accesses                        2                       # DTB read accesses
system.cpu.dtb.write_hits                           0                       # DTB write hits
system.cpu.dtb.write_misses                         0                       # DTB write misses
system.cpu.dtb.write_acv                            0                       # DTB write access violations
system.cpu.dtb.write_accesses                       0                       # DTB write accesses
system.cpu.dtb.data_hits                            2                       # DTB hits
system.cpu.dtb.data_misses                          0                       # DTB misses
system.cpu.dtb.data_acv                             0                       # DTB access violations
system.cpu.dtb.data_accesses                        2                       # DTB accesses
system.cpu.itb.fetch_hits                           3                       # ITB hits
system.cpu.itb.fetch_misses                         0                       # ITB misses
system.cpu.itb.fetch_acv                            0                       # ITB acv
system.cpu.itb.fetch_accesses                       3                       # ITB accesses
system.cpu.itb.read_hits                            0                       # DTB read hits
system.cpu.itb.read_misses                          0                       # DTB read misses
system.cpu.itb.read_acv                             0                       # DTB read access violations
system.cpu.itb.read_accesses                        0                       # DTB read accesses
system.cpu.itb.write_hits                           0                       # DTB write hits
system.cpu.itb.write_misses                         0                       # DTB write misses
system.cpu.itb.write_acv                            0                       # DTB write access violations
system.cpu.itb.write_accesses                       0                       # DTB write accesses
system.cpu.itb.data_hits                            0                       # DTB hits
system.cpu.itb.data_misses                          0                       # DTB misses
system.cpu.itb.data_acv                             0                       # DTB access violations
system.cpu.itb.data_accesses                        0                       # DTB accesses
system.cpu.workload.num_syscalls                    0                       # Number of system calls
system.cpu.pwrStateResidencyTicks::ON    2470991772096                       # Cumulative time (in ticks) in various power states
system.cpu.numCycles                              291                       # number of cpu cycles simulated
system.cpu.numWorkItemsStarted                      0                       # number of work items this cpu started
system.cpu.numWorkItemsCompleted                    0                       # number of work items this cpu completed
system.cpu.fetch.icacheStallCycles                 19                       # Number of cycles fetch is stalled on an Icache miss
system.cpu.fetch.Insts                              9                       # Number of instructions fetch has processed
system.cpu.fetch.Branches                           3                       # Number of branches that fetch encountered
system.cpu.fetch.Cycles                             2                       # Number of cycles fetch has run and was not squashing or blocked
system.cpu.fetch.SquashCycles                       5                       # Number of cycles fetch has spent squashing
system.cpu.fetch.PendingDrainCycles                 3                       # Number of cycles fetch has spent waiting on pipes to drain
system.cpu.fetch.CacheLines                         3                       # Number of cache lines fetched
system.cpu.fetch.IcacheSquashes                     2                       # Number of outstanding Icache misses that were squashed
system.cpu.fetch.rateDist::samples                 26                       # Number of instructions fetched each cycle (Total)
system.cpu.fetch.rateDist::mean              0.346154                       # Number of instructions fetched each cycle (Total)
system.cpu.fetch.rateDist::stdev             1.573336                       # Number of instructions fetched each cycle (Total)
system.cpu.fetch.rateDist::underflows               0      0.00%      0.00% # Number of instructions fetched each cycle (Total)
system.cpu.fetch.rateDist::0                       24     92.31%     92.31% # Number of instructions fetched each cycle (Total)
system.cpu.fetch.rateDist::1                        1      3.85%     96.15% # Number of instructions fetched each cycle (Total)
system.cpu.fetch.rateDist::2                        0      0.00%     96.15% # Number of instructions fetched each cycle (Total)
system.cpu.fetch.rateDist::3                        0      0.00%     96.15% # Number of instructions fetched each cycle (Total)
system.cpu.fetch.rateDist::4                        0      0.00%     96.15% # Number of instructions fetched each cycle (Total)
system.cpu.fetch.rateDist::5                        0      0.00%     96.15% # Number of instructions fetched each cycle (Total)
system.cpu.fetch.rateDist::6                        0      0.00%     96.15% # Number of instructions fetched each cycle (Total)
system.cpu.fetch.rateDist::7                        0      0.00%     96.15% # Number of instructions fetched each cycle (Total)
system.cpu.fetch.rateDist::8                        1      3.85%    100.00% # Number of instructions fetched each cycle (Total)
system.cpu.fetch.rateDist::overflows                0      0.00%    100.00% # Number of instructions fetched each cycle (Total)
system.cpu.fetch.rateDist::min_value                0                       # Number of instructions fetched each cycle (Total)
system.cpu.fetch.rateDist::max_value                8                       # Number of instructions fetched each cycle (Total)
system.cpu.fetch.rateDist::total                   26                       # Number of instructions fetched each cycle (Total)
system.cpu.fetch.branchRate                  0.010309                       # Number of branch fetches per cycle
system.cpu.fetch.rate                        0.030928                       # Number of inst fetches per cycle
system.cpu.decode.IdleCycles                       21                       # Number of cycles decode is idle
[...]
system.switch_cpus_1.iq.int_inst_queue_wakeup_accesses    319667242                       # Number of integer instruction queue wakeup accesses
system.switch_cpus_1.iq.fp_inst_queue_reads     69673175                       # Number of floating instruction queue reads
system.switch_cpus_1.iq.fp_inst_queue_writes    112002916                       # Number of floating instruction queue writes
system.switch_cpus_1.iq.fp_inst_queue_wakeup_accesses     28686892                       # Number of floating instruction queue wakeup accesses
system.switch_cpus_1.iq.int_alu_accesses    350209009                       # Number of integer alu accesses
system.switch_cpus_1.iq.fp_alu_accesses      35019783                       # Number of floating point alu accesses
system.switch_cpus_1.iew.lsq.thread0.forwLoads      9331029                       # Number of loads that had data forwarded from stores
system.switch_cpus_1.iew.lsq.thread0.invAddrLoads            0                       # Number of loads ignored due to an invalid address
system.switch_cpus_1.iew.lsq.thread0.squashedLoads     67930564                       # Number of loads squashed
system.switch_cpus_1.iew.lsq.thread0.ignoredResponses        24424                       # Number of memory responses ignored because the instruction is squashed
system.switch_cpus_1.iew.lsq.thread0.memOrderViolation        11014                       # Number of memory ordering violations
system.switch_cpus_1.iew.lsq.thread0.squashedStores     29365737                       # Number of stores squashed
system.switch_cpus_1.iew.lsq.thread0.invAddrSwpfs            0                       # Number of software prefetches ignored due to an invalid address
system.switch_cpus_1.iew.lsq.thread0.blockedLoads            0                       # Number of blocked loads due to partial load-store forwarding
system.switch_cpus_1.iew.lsq.thread0.rescheduledLoads          416                       # Number of loads that were rescheduled
system.switch_cpus_1.iew.lsq.thread0.cacheBlocked      2566794                       # Number of times an access to memory failed due to the cache being blocked
system.switch_cpus_1.iew.iewIdleCycles              0                       # Number of cycles IEW is idle
system.switch_cpus_1.iew.iewSquashCycles      3799206                       # Number of cycles IEW is squashing
system.switch_cpus_1.iew.iewBlockCycles     151083544                       # Number of cycles IEW is blocking
system.switch_cpus_1.iew.iewUnblockCycles     80710549                       # Number of cycles IEW is unblocking
system.switch_cpus_1.iew.iewDispatchedInsts    486091720                       # Number of instructions dispatched to IQ
system.switch_cpus_1.iew.iewDispSquashedInsts       126650                       # Number of squashed instructions skipped by dispatch
system.switch_cpus_1.iew.iewDispLoadInsts    115657820                       # Number of dispatched load instructions
system.switch_cpus_1.iew.iewDispStoreInsts     58594564                       # Number of dispatched store instructions
system.switch_cpus_1.iew.iewDispNonSpecInsts       528638                       # Number of dispatched non-speculative instructions
system.switch_cpus_1.iew.iewIQFullEvents      1254411                       # Number of times the IQ has become full, causing a stall
system.switch_cpus_1.iew.iewLSQFullEvents     79207764                       # Number of times the LSQ has become full, causing a stall
system.switch_cpus_1.iew.memOrderViolationEvents        11014                       # Number of memory order violations
system.switch_cpus_1.iew.predictedTakenIncorrect       754663                       # Number of branches that were predicted taken incorrectly
system.switch_cpus_1.iew.predictedNotTakenIncorrect      1133804                       # Number of branches that were predicted not taken incorrectly
system.switch_cpus_1.iew.branchMispredicts      1888467                       # Number of branch mispredicts detected at execute
system.switch_cpus_1.iew.iewExecutedInsts    374066225                       # Number of executed instructions
system.switch_cpus_1.iew.iewExecLoadInsts    102195656                       # Number of load instructions executed
system.switch_cpus_1.iew.iewExecSquashedInsts      4209107                       # Number of squashed instructions skipped in execute
system.switch_cpus_1.iew.exec_swp                   0                       # number of swp insts executed
system.switch_cpus_1.iew.exec_nop            23143790                       # number of nop insts executed
system.switch_cpus_1.iew.exec_refs          154318953                       # number of memory reference insts executed
system.switch_cpus_1.iew.exec_branches       72277667                       # Number of branches executed
system.switch_cpus_1.iew.exec_stores         52123297                       # Number of stores executed
system.switch_cpus_1.iew.exec_rate           0.550101                       # Inst execution rate
system.switch_cpus_1.iew.wb_sent            368776068                       # cumulative count of insts sent to commit
system.switch_cpus_1.iew.wb_count           348354134                       # cumulative count of insts written-back
system.switch_cpus_1.iew.wb_producers       176355156                       # num instructions producing a value
system.switch_cpus_1.iew.wb_consumers       258673445                       # num instructions consuming a value
system.switch_cpus_1.iew.wb_rate             0.512289                       # insts written-back per cycle
system.switch_cpus_1.iew.wb_fanout           0.681768                       # average fanout of values written-back
system.switch_cpus_1.commit.commitSquashedInsts    228874909                       # The number of squashed insts skipped by commit
system.switch_cpus_1.commit.commitNonSpecStalls       665598                       # The number of times commit has been forced to stall to communicate backwards
system.switch_cpus_1.commit.branchMispredicts      1445846                       # The number of times a branch was mispredicted
system.switch_cpus_1.commit.committed_per_cycle::samples    647028450                       # Number of insts commited each cycle
system.switch_cpus_1.commit.committed_per_cycle::mean     0.330116                       # Number of insts commited each cycle
system.switch_cpus_1.commit.committed_per_cycle::stdev     1.387471                       # Number of insts commited each cycle
system.switch_cpus_1.commit.committed_per_cycle::underflows            0      0.00%      0.00% # Number of insts commited each cycle
system.switch_cpus_1.commit.committed_per_cycle::0    592739592     91.61%     91.61% # Number of insts commited each cycle
system.switch_cpus_1.commit.committed_per_cycle::1     19952144      3.08%     94.69% # Number of insts commited each cycle
system.switch_cpus_1.commit.committed_per_cycle::2      6024549      0.93%     95.62% # Number of insts commited each cycle
system.switch_cpus_1.commit.committed_per_cycle::3      3739686      0.58%     96.20% # Number of insts commited each cycle
system.switch_cpus_1.commit.committed_per_cycle::4      3307211      0.51%     96.71% # Number of insts commited each cycle
system.switch_cpus_1.commit.committed_per_cycle::5      2553208      0.39%     97.11% # Number of insts commited each cycle
system.switch_cpus_1.commit.committed_per_cycle::6      1911672      0.30%     97.40% # Number of insts commited each cycle
system.switch_cpus_1.commit.committed_per_cycle::7      1493910      0.23%     97.63% # Number of insts commited each cycle
system.switch_cpus_1.commit.committed_per_cycle::8     15306478      2.37%    100.00% # Number of insts commited each cycle
system.switch_cpus_1.commit.committed_per_cycle::overflows            0      0.00%    100.00% # Number of insts commited each cycle
system.switch_cpus_1.commit.committed_per_cycle::min_value            0                       # Number of insts commited each cycle
system.switch_cpus_1.commit.committed_per_cycle::max_value            8                       # Number of insts commited each cycle
system.switch_cpus_1.commit.committed_per_cycle::total    647028450                       # Number of insts commited each cycle
system.switch_cpus_1.commit.committedInsts    213594410                       # Number of instructions committed
system.switch_cpus_1.commit.committedOps    213594410                       # Number of ops (including micro ops) committed
system.switch_cpus_1.commit.swp_count               0                       # Number of s/w prefetches committed
system.switch_cpus_1.commit.refs             76956073                       # Number of memory references committed
system.switch_cpus_1.commit.loads            47727246                       # Number of loads committed
system.switch_cpus_1.commit.membars            332799                       # Number of memory barriers committed
system.switch_cpus_1.commit.branches         42872050                       # Number of branches committed
system.switch_cpus_1.commit.fp_insts         19258208                       # Number of committed floating point instructions.
system.switch_cpus_1.commit.int_insts       185197309                       # Number of committed integer instructions.
system.switch_cpus_1.commit.function_calls      6276853                       # Number of function calls committed.
system.switch_cpus_1.commit.op_class_0::No_OpClass     13768422      6.45%      6.45% # Class of committed instruction
system.switch_cpus_1.commit.op_class_0::IntAlu    110964867     51.95%     58.40% # Class of committed instruction
system.switch_cpus_1.commit.op_class_0::IntMult        87084      0.04%     58.44% # Class of committed instruction
system.switch_cpus_1.commit.op_class_0::IntDiv            0      0.00%     58.44% # Class of committed instruction
system.switch_cpus_1.commit.op_class_0::FloatAdd      6284834      2.94%     61.38% # Class of committed instruction
system.switch_cpus_1.commit.op_class_0::FloatCmp      4706081      2.20%     63.58% # Class of committed instruction
system.switch_cpus_1.commit.op_class_0::FloatCvt       352967      0.17%     63.75% # Class of committed instruction
system.switch_cpus_1.commit.op_class_0::FloatMult        54220      0.03%     63.77% # Class of committed instruction
system.switch_cpus_1.commit.op_class_0::FloatMultAcc            0      0.00%     63.77% # Class of committed instruction
system.switch_cpus_1.commit.op_class_0::FloatDiv        87048      0.04%     63.82% # Class of committed instruction
system.switch_cpus_1.commit.op_class_0::FloatMisc            0      0.00%     63.82% # Class of committed instruction
system.switch_cpus_1.commit.op_class_0::FloatSqrt           15      0.00%     63.82% # Class of committed instruction
system.switch_cpus_1.commit.op_class_0::SimdAdd            0      0.00%     63.82% # Class of committed instruction
system.switch_cpus_1.commit.op_class_0::SimdAddAcc            0      0.00%     63.82% # Class of committed instruction
system.switch_cpus_1.commit.op_class_0::SimdAlu            0      0.00%     63.82% # Class of committed instruction
system.switch_cpus_1.commit.op_class_0::SimdCmp            0      0.00%     63.82% # Class of committed instruction
system.switch_cpus_1.commit.op_class_0::SimdCvt            0      0.00%     63.82% # Class of committed instruction
system.switch_cpus_1.commit.op_class_0::SimdMisc            0      0.00%     63.82% # Class of committed instruction
system.switch_cpus_1.commit.op_class_0::SimdMult            0      0.00%     63.82% # Class of committed instruction
system.switch_cpus_1.commit.op_class_0::SimdMultAcc            0      0.00%     63.82% # Class of committed instruction
system.switch_cpus_1.commit.op_class_0::SimdShift            0      0.00%     63.82% # Class of committed instruction
system.switch_cpus_1.commit.op_class_0::SimdShiftAcc            0      0.00%     63.82% # Class of committed instruction
system.switch_cpus_1.commit.op_class_0::SimdSqrt            0      0.00%     63.82% # Class of committed instruction
system.switch_cpus_1.commit.op_class_0::SimdFloatAdd            0      0.00%     63.82% # Class of committed instruction
system.switch_cpus_1.commit.op_class_0::SimdFloatAlu            0      0.00%     63.82% # Class of committed instruction
system.switch_cpus_1.commit.op_class_0::SimdFloatCmp            0      0.00%     63.82% # Class of committed instruction
system.switch_cpus_1.commit.op_class_0::SimdFloatCvt            0      0.00%     63.82% # Class of committed instruction
system.switch_cpus_1.commit.op_class_0::SimdFloatDiv            0      0.00%     63.82% # Class of committed instruction
system.switch_cpus_1.commit.op_class_0::SimdFloatMisc            0      0.00%     63.82% # Class of committed instruction
system.switch_cpus_1.commit.op_class_0::SimdFloatMult            0      0.00%     63.82% # Class of committed instruction
system.switch_cpus_1.commit.op_class_0::SimdFloatMultAcc            0      0.00%     63.82% # Class of committed instruction
system.switch_cpus_1.commit.op_class_0::SimdFloatSqrt            0      0.00%     63.82% # Class of committed instruction
system.switch_cpus_1.commit.op_class_0::MemRead     41999437     19.66%     83.48% # Class of committed instruction
system.switch_cpus_1.commit.op_class_0::MemWrite     27516392     12.88%     96.36% # Class of committed instruction
system.switch_cpus_1.commit.op_class_0::FloatMemRead      6060608      2.84%     99.20% # Class of committed instruction
system.switch_cpus_1.commit.op_class_0::FloatMemWrite      1712435      0.80%    100.00% # Class of committed instruction
system.switch_cpus_1.commit.op_class_0::IprAccess            0      0.00%    100.00% # Class of committed instruction
system.switch_cpus_1.commit.op_class_0::InstPrefetch            0      0.00%    100.00% # Class of committed instruction
system.switch_cpus_1.commit.op_class_0::total    213594410                       # Class of committed instruction
system.switch_cpus_1.commit.bw_lim_events     15306478                       # number cycles where commit BW limit reached
system.switch_cpus_1.rob.rob_reads         1043709944                       # The number of ROB reads
system.switch_cpus_1.rob.rob_writes         916568079                       # The number of ROB writes
system.switch_cpus_1.timesIdled                 20979                       # Number of times that the entire CPU went into an idle state and unscheduled itself
system.switch_cpus_1.idleCycles               1385803                       # Total number of cycles that the CPU has spent unscheduled due to idling
system.switch_cpus_1.committedInsts         200000000                       # Number of Instructions Simulated
system.switch_cpus_1.committedOps           200000000                       # Number of Ops (including micro ops) Simulated
system.switch_cpus_1.cpi                     3.399978                       # CPI: Cycles Per Instruction
system.switch_cpus_1.cpi_total               3.399978                       # CPI: Total CPI of All Threads
system.switch_cpus_1.ipc                     0.294120                       # IPC: Instructions Per Cycle
system.switch_cpus_1.ipc_total               0.294120                       # IPC: Total IPC of All Threads
system.switch_cpus_1.int_regfile_reads      474376586                       # number of integer regfile reads
system.switch_cpus_1.int_regfile_writes     218427542                       # number of integer regfile writes
system.switch_cpus_1.fp_regfile_reads        26262547                       # number of floating regfile reads
system.switch_cpus_1.fp_regfile_writes       19745661                       # number of floating regfile writes
system.switch_cpus_1.misc_regfile_reads        925569                       # number of misc regfile reads
system.switch_cpus_1.misc_regfile_writes       752604                       # number of misc regfile writes
system.tol3bus.snoop_filter.tot_requests     44291877                       # Total number of requests made to the snoop filter.
system.tol3bus.snoop_filter.hit_single_requests     22146362                       # Number of requests hitting in the snoop filter with a single holder of the requested data.
system.tol3bus.snoop_filter.hit_multi_requests            0                       # Number of requests hitting in the snoop filter with multiple (>1) holders of the requested data.
system.tol3bus.snoop_filter.tot_snoops         147103                       # Total number of snoops made to the snoop filter.
system.tol3bus.snoop_filter.hit_single_snoops       147103                       # Number of snoops hitting in the snoop filter with a single holder of the requested data.
system.tol3bus.snoop_filter.hit_multi_snoops            0                       # Number of snoops hitting in the snoop filter with multiple (>1) holders of the requested data.
system.tol3bus.pwrStateResidencyTicks::UNDEFINED 129423988296828                       # Cumulative time (in ticks) in various power states
system.tol3bus.trans_dist::ReadResp          18859343                       # Transaction distribution
system.tol3bus.trans_dist::WritebackDirty     17011498                       # Transaction distribution
system.tol3bus.trans_dist::CleanEvict        19603067                       # Transaction distribution
system.tol3bus.trans_dist::UpgradeReq            1930                       # Transaction distribution
system.tol3bus.trans_dist::UpgradeResp           1930                       # Transaction distribution
system.tol3bus.trans_dist::ReadExReq          3286172                       # Transaction distribution
system.tol3bus.trans_dist::ReadExResp         3286172                       # Transaction distribution
system.tol3bus.trans_dist::ReadSharedReq     18859343                       # Transaction distribution
system.tol3bus.pkt_count_system.cpu.l2.mem_side::system.l3.cpu_side     66439322                       # Packet count per connected master and slave (bytes)
system.tol3bus.pkt_size_system.cpu.l2.mem_side::system.l3.cpu_side   2119725184                       # Cumulative packet size per connected master and slave (bytes)
system.tol3bus.snoops                        14470133                       # Total snoops (count)
system.tol3bus.snoopTraffic                 386323648                       # Total snoop traffic (bytes)
system.tol3bus.snoop_fanout::samples         36617578                       # Request fanout histogram
system.tol3bus.snoop_fanout::mean            0.004017                       # Request fanout histogram
system.tol3bus.snoop_fanout::stdev           0.063255                       # Request fanout histogram
system.tol3bus.snoop_fanout::underflows             0      0.00%      0.00% # Request fanout histogram
system.tol3bus.snoop_fanout::0               36470475     99.60%     99.60% # Request fanout histogram
system.tol3bus.snoop_fanout::1                 147103      0.40%    100.00% # Request fanout histogram
system.tol3bus.snoop_fanout::overflows              0      0.00%    100.00% # Request fanout histogram
system.tol3bus.snoop_fanout::min_value              0                       # Request fanout histogram
system.tol3bus.snoop_fanout::max_value              1                       # Request fanout histogram
system.tol3bus.snoop_fanout::total           36617578                       # Request fanout histogram
system.tol3bus.reqLayer0.occupancy        18403933644                       # Layer occupancy (ticks)
system.tol3bus.reqLayer0.utilization              0.7                       # Layer utilization (%)
system.tol3bus.respLayer0.occupancy       14749555680                       # Layer occupancy (ticks)
system.tol3bus.respLayer0.utilization             0.6                       # Layer utilization (%)

---------- End Simulation Statistics   ----------
