
---------- Begin Simulation Statistics ----------
sim_seconds                                  1.399194                       # Number of seconds simulated
sim_ticks                                1399194404001                       # Number of ticks simulated
final_tick                               118633890836187                       # Number of ticks from beginning of simulation (restored from checkpoints and never reset)
sim_freq                                 1000000000000                       # Frequency of simulated ticks
host_inst_rate                                 588451                       # Simulator instruction rate (inst/s)
host_op_rate                                   588451                       # Simulator op (including micro ops) rate (op/s)
host_tick_rate                              686130810                       # Simulator tick rate (ticks/s)
host_mem_usage                                2589460                       # Number of bytes of host memory used
host_seconds                                  2039.25                       # Real time elapsed on the host
sim_insts                                  1200000007                       # Number of instructions simulated
sim_ops                                    1200000007                       # Number of ops (including micro ops) simulated
system.voltage_domain.voltage                       1                       # Voltage in Volts
system.clk_domain.clock                          1000                       # Clock period in ticks
system.mem_ctrls0.pwrStateResidencyTicks::UNDEFINED 118633890836187                       # Cumulative time (in ticks) in various power states
system.mem_ctrls0.bytes_read::cpu.inst             64                       # Number of bytes read from this memory
system.mem_ctrls0.bytes_read::switch_cpus.inst        21952                       # Number of bytes read from this memory
system.mem_ctrls0.bytes_read::switch_cpus.data    118870912                       # Number of bytes read from this memory
system.mem_ctrls0.bytes_read::switch_cpus_1.inst          384                       # Number of bytes read from this memory
system.mem_ctrls0.bytes_read::switch_cpus_1.data     21582784                       # Number of bytes read from this memory
system.mem_ctrls0.bytes_read::total         140476096                       # Number of bytes read from this memory
system.mem_ctrls0.bytes_inst_read::cpu.inst           64                       # Number of instructions bytes read from this memory
system.mem_ctrls0.bytes_inst_read::switch_cpus.inst        21952                       # Number of instructions bytes read from this memory
system.mem_ctrls0.bytes_inst_read::switch_cpus_1.inst          384                       # Number of instructions bytes read from this memory
system.mem_ctrls0.bytes_inst_read::total        22400                       # Number of instructions bytes read from this memory
system.mem_ctrls0.bytes_written::writebacks     55954688                       # Number of bytes written to this memory
system.mem_ctrls0.bytes_written::total       55954688                       # Number of bytes written to this memory
system.mem_ctrls0.num_reads::cpu.inst               1                       # Number of read requests responded to by this memory
system.mem_ctrls0.num_reads::switch_cpus.inst          343                       # Number of read requests responded to by this memory
system.mem_ctrls0.num_reads::switch_cpus.data      1857358                       # Number of read requests responded to by this memory
system.mem_ctrls0.num_reads::switch_cpus_1.inst            6                       # Number of read requests responded to by this memory
system.mem_ctrls0.num_reads::switch_cpus_1.data       337231                       # Number of read requests responded to by this memory
system.mem_ctrls0.num_reads::total            2194939                       # Number of read requests responded to by this memory
system.mem_ctrls0.num_writes::writebacks       874292                       # Number of write requests responded to by this memory
system.mem_ctrls0.num_writes::total            874292                       # Number of write requests responded to by this memory
system.mem_ctrls0.bw_read::cpu.inst                46                       # Total read bandwidth from this memory (bytes/s)
system.mem_ctrls0.bw_read::switch_cpus.inst        15689                       # Total read bandwidth from this memory (bytes/s)
system.mem_ctrls0.bw_read::switch_cpus.data     84956681                       # Total read bandwidth from this memory (bytes/s)
system.mem_ctrls0.bw_read::switch_cpus_1.inst          274                       # Total read bandwidth from this memory (bytes/s)
system.mem_ctrls0.bw_read::switch_cpus_1.data     15425150                       # Total read bandwidth from this memory (bytes/s)
system.mem_ctrls0.bw_read::total            100397840                       # Total read bandwidth from this memory (bytes/s)
system.mem_ctrls0.bw_inst_read::cpu.inst           46                       # Instruction read bandwidth from this memory (bytes/s)
system.mem_ctrls0.bw_inst_read::switch_cpus.inst        15689                       # Instruction read bandwidth from this memory (bytes/s)
system.mem_ctrls0.bw_inst_read::switch_cpus_1.inst          274                       # Instruction read bandwidth from this memory (bytes/s)
system.mem_ctrls0.bw_inst_read::total           16009                       # Instruction read bandwidth from this memory (bytes/s)
system.mem_ctrls0.bw_write::writebacks       39990646                       # Write bandwidth from this memory (bytes/s)
system.mem_ctrls0.bw_write::total            39990646                       # Write bandwidth from this memory (bytes/s)
system.mem_ctrls0.bw_total::writebacks       39990646                       # Total bandwidth to/from this memory (bytes/s)
system.mem_ctrls0.bw_total::cpu.inst               46                       # Total bandwidth to/from this memory (bytes/s)
system.mem_ctrls0.bw_total::switch_cpus.inst        15689                       # Total bandwidth to/from this memory (bytes/s)
system.mem_ctrls0.bw_total::switch_cpus.data     84956681                       # Total bandwidth to/from this memory (bytes/s)
system.mem_ctrls0.bw_total::switch_cpus_1.inst          274                       # Total bandwidth to/from this memory (bytes/s)
system.mem_ctrls0.bw_total::switch_cpus_1.data     15425150                       # Total bandwidth to/from this memory (bytes/s)
system.mem_ctrls0.bw_total::total           140388486                       # Total bandwidth to/from this memory (bytes/s)
system.mem_ctrls0.readReqs                    2194939                       # Number of read requests accepted
system.mem_ctrls0.writeReqs                    874292                       # Number of write requests accepted
system.mem_ctrls0.readBursts                  2194939                       # Number of DRAM read bursts, including those serviced by the write queue
system.mem_ctrls0.writeBursts                  874292                       # Number of DRAM write bursts, including those merged in the write queue
system.mem_ctrls0.bytesReadDRAM             140473856                       # Total number of bytes read from DRAM
system.mem_ctrls0.bytesReadWrQ                   2240                       # Total number of bytes read from write queue
system.mem_ctrls0.bytesWritten               55952704                       # Total number of bytes written to DRAM
system.mem_ctrls0.bytesReadSys              140476096                       # Total read bytes from the system interface side
system.mem_ctrls0.bytesWrittenSys            55954688                       # Total written bytes from the system interface side
system.mem_ctrls0.servicedByWrQ                    35                       # Number of DRAM read bursts serviced by the write queue
system.mem_ctrls0.mergedWrBursts                    0                       # Number of DRAM write bursts merged with an existing one
system.mem_ctrls0.neitherReadNorWriteReqs            0                       # Number of requests that are neither read nor write
system.mem_ctrls0.perBankRdBursts::0           136959                       # Per bank write bursts
system.mem_ctrls0.perBankRdBursts::1           137313                       # Per bank write bursts
system.mem_ctrls0.perBankRdBursts::2           137709                       # Per bank write bursts
system.mem_ctrls0.perBankRdBursts::3           137112                       # Per bank write bursts
system.mem_ctrls0.perBankRdBursts::4           137488                       # Per bank write bursts
system.mem_ctrls0.perBankRdBursts::5           136988                       # Per bank write bursts
system.mem_ctrls0.perBankRdBursts::6           137560                       # Per bank write bursts
system.mem_ctrls0.perBankRdBursts::7           136795                       # Per bank write bursts
system.mem_ctrls0.perBankRdBursts::8           137353                       # Per bank write bursts
system.mem_ctrls0.perBankRdBursts::9           137552                       # Per bank write bursts
system.mem_ctrls0.perBankRdBursts::10          137091                       # Per bank write bursts
system.mem_ctrls0.perBankRdBursts::11          137346                       # Per bank write bursts
system.mem_ctrls0.perBankRdBursts::12          137322                       # Per bank write bursts
system.mem_ctrls0.perBankRdBursts::13          136311                       # Per bank write bursts
system.mem_ctrls0.perBankRdBursts::14          136952                       # Per bank write bursts
system.mem_ctrls0.perBankRdBursts::15          137053                       # Per bank write bursts
system.mem_ctrls0.perBankWrBursts::0            54590                       # Per bank write bursts
system.mem_ctrls0.perBankWrBursts::1            54366                       # Per bank write bursts
system.mem_ctrls0.perBankWrBursts::2            54660                       # Per bank write bursts
system.mem_ctrls0.perBankWrBursts::3            54600                       # Per bank write bursts
system.mem_ctrls0.perBankWrBursts::4            54491                       # Per bank write bursts
system.mem_ctrls0.perBankWrBursts::5            54646                       # Per bank write bursts
system.mem_ctrls0.perBankWrBursts::6            55302                       # Per bank write bursts
system.mem_ctrls0.perBankWrBursts::7            54515                       # Per bank write bursts
system.mem_ctrls0.perBankWrBursts::8            54771                       # Per bank write bursts
system.mem_ctrls0.perBankWrBursts::9            54830                       # Per bank write bursts
system.mem_ctrls0.perBankWrBursts::10           54718                       # Per bank write bursts
system.mem_ctrls0.perBankWrBursts::11           54589                       # Per bank write bursts
system.mem_ctrls0.perBankWrBursts::12           54793                       # Per bank write bursts
system.mem_ctrls0.perBankWrBursts::13           54553                       # Per bank write bursts
system.mem_ctrls0.perBankWrBursts::14           54331                       # Per bank write bursts
system.mem_ctrls0.perBankWrBursts::15           54506                       # Per bank write bursts
system.mem_ctrls0.numRdRetry                        0                       # Number of times read queue was full causing retry
system.mem_ctrls0.numWrRetry                        0                       # Number of times write queue was full causing retry
system.mem_ctrls0.totGap                 1399194322749                       # Total gap between requests
system.mem_ctrls0.readPktSize::0                    0                       # Read request sizes (log2)
system.mem_ctrls0.readPktSize::1                    0                       # Read request sizes (log2)
system.mem_ctrls0.readPktSize::2                    0                       # Read request sizes (log2)
system.mem_ctrls0.readPktSize::3                    0                       # Read request sizes (log2)
system.mem_ctrls0.readPktSize::4                    0                       # Read request sizes (log2)
system.mem_ctrls0.readPktSize::5                    0                       # Read request sizes (log2)
system.mem_ctrls0.readPktSize::6              2194939                       # Read request sizes (log2)
system.mem_ctrls0.writePktSize::0                   0                       # Write request sizes (log2)
system.mem_ctrls0.writePktSize::1                   0                       # Write request sizes (log2)
system.mem_ctrls0.writePktSize::2                   0                       # Write request sizes (log2)
system.mem_ctrls0.writePktSize::3                   0                       # Write request sizes (log2)
system.mem_ctrls0.writePktSize::4                   0                       # Write request sizes (log2)
system.mem_ctrls0.writePktSize::5                   0                       # Write request sizes (log2)
system.mem_ctrls0.writePktSize::6              874292                       # Write request sizes (log2)
system.mem_ctrls0.rdQLenPdf::0                2105373                       # What read queue length does an incoming req see
system.mem_ctrls0.rdQLenPdf::1                  74157                       # What read queue length does an incoming req see
system.mem_ctrls0.rdQLenPdf::2                  13727                       # What read queue length does an incoming req see
system.mem_ctrls0.rdQLenPdf::3                   1647                       # What read queue length does an incoming req see
system.mem_ctrls0.rdQLenPdf::4                      0                       # What read queue length does an incoming req see
system.mem_ctrls0.rdQLenPdf::5                      0                       # What read queue length does an incoming req see
system.mem_ctrls0.rdQLenPdf::6                      0                       # What read queue length does an incoming req see
system.mem_ctrls0.rdQLenPdf::7                      0                       # What read queue length does an incoming req see
system.mem_ctrls0.rdQLenPdf::8                      0                       # What read queue length does an incoming req see
system.mem_ctrls0.rdQLenPdf::9                      0                       # What read queue length does an incoming req see
system.mem_ctrls0.rdQLenPdf::10                     0                       # What read queue length does an incoming req see
system.mem_ctrls0.rdQLenPdf::11                     0                       # What read queue length does an incoming req see
system.mem_ctrls0.rdQLenPdf::12                     0                       # What read queue length does an incoming req see
system.mem_ctrls0.rdQLenPdf::13                     0                       # What read queue length does an incoming req see
system.mem_ctrls0.rdQLenPdf::14                     0                       # What read queue length does an incoming req see
system.mem_ctrls0.rdQLenPdf::15                     0                       # What read queue length does an incoming req see
system.mem_ctrls0.rdQLenPdf::16                     0                       # What read queue length does an incoming req see
system.mem_ctrls0.rdQLenPdf::17                     0                       # What read queue length does an incoming req see
system.mem_ctrls0.rdQLenPdf::18                     0                       # What read queue length does an incoming req see
system.mem_ctrls0.rdQLenPdf::19                     0                       # What read queue length does an incoming req see
system.mem_ctrls0.rdQLenPdf::20                     0                       # What read queue length does an incoming req see
system.mem_ctrls0.rdQLenPdf::21                     0                       # What read queue length does an incoming req see
system.mem_ctrls0.rdQLenPdf::22                     0                       # What read queue length does an incoming req see
system.mem_ctrls0.rdQLenPdf::23                     0                       # What read queue length does an incoming req see
system.mem_ctrls0.rdQLenPdf::24                     0                       # What read queue length does an incoming req see
system.mem_ctrls0.rdQLenPdf::25                     0                       # What read queue length does an incoming req see
system.mem_ctrls0.rdQLenPdf::26                     0                       # What read queue length does an incoming req see
system.mem_ctrls0.rdQLenPdf::27                     0                       # What read queue length does an incoming req see
system.mem_ctrls0.rdQLenPdf::28                     0                       # What read queue length does an incoming req see
system.mem_ctrls0.rdQLenPdf::29                     0                       # What read queue length does an incoming req see
system.mem_ctrls0.rdQLenPdf::30                     0                       # What read queue length does an incoming req see
system.mem_ctrls0.rdQLenPdf::31                     0                       # What read queue length does an incoming req see
system.mem_ctrls0.wrQLenPdf::0                      2                       # What write queue length does an incoming req see
system.mem_ctrls0.wrQLenPdf::1                      2                       # What write queue length does an incoming req see
system.mem_ctrls0.wrQLenPdf::2                      2                       # What write queue length does an incoming req see
system.mem_ctrls0.wrQLenPdf::3                      2                       # What write queue length does an incoming req see
system.mem_ctrls0.wrQLenPdf::4                      2                       # What write queue length does an incoming req see
system.mem_ctrls0.wrQLenPdf::5                      2                       # What write queue length does an incoming req see
system.mem_ctrls0.wrQLenPdf::6                      2                       # What write queue length does an incoming req see
system.mem_ctrls0.wrQLenPdf::7                      2                       # What write queue length does an incoming req see
system.mem_ctrls0.wrQLenPdf::8                      2                       # What write queue length does an incoming req see
system.mem_ctrls0.wrQLenPdf::9                      2                       # What write queue length does an incoming req see
system.mem_ctrls0.wrQLenPdf::10                     2                       # What write queue length does an incoming req see
system.mem_ctrls0.wrQLenPdf::11                     2                       # What write queue length does an incoming req see
system.mem_ctrls0.wrQLenPdf::12                     2                       # What write queue length does an incoming req see
system.mem_ctrls0.wrQLenPdf::13                     2                       # What write queue length does an incoming req see
system.mem_ctrls0.wrQLenPdf::14                     2                       # What write queue length does an incoming req see
system.mem_ctrls0.wrQLenPdf::15                 37816                       # What write queue length does an incoming req see
system.mem_ctrls0.wrQLenPdf::16                 38834                       # What write queue length does an incoming req see
system.mem_ctrls0.wrQLenPdf::17                 48938                       # What write queue length does an incoming req see
system.mem_ctrls0.wrQLenPdf::18                 49740                       # What write queue length does an incoming req see
system.mem_ctrls0.wrQLenPdf::19                 49797                       # What write queue length does an incoming req see
system.mem_ctrls0.wrQLenPdf::20                 49821                       # What write queue length does an incoming req see
system.mem_ctrls0.wrQLenPdf::21                 49806                       # What write queue length does an incoming req see
system.mem_ctrls0.wrQLenPdf::22                 49855                       # What write queue length does an incoming req see
system.mem_ctrls0.wrQLenPdf::23                 49873                       # What write queue length does an incoming req see
system.mem_ctrls0.wrQLenPdf::24                 49922                       # What write queue length does an incoming req see
system.mem_ctrls0.wrQLenPdf::25                 50392                       # What write queue length does an incoming req see
system.mem_ctrls0.wrQLenPdf::26                 50055                       # What write queue length does an incoming req see
system.mem_ctrls0.wrQLenPdf::27                 49893                       # What write queue length does an incoming req see
system.mem_ctrls0.wrQLenPdf::28                 49915                       # What write queue length does an incoming req see
system.mem_ctrls0.wrQLenPdf::29                 49975                       # What write queue length does an incoming req see
system.mem_ctrls0.wrQLenPdf::30                 50029                       # What write queue length does an incoming req see
system.mem_ctrls0.wrQLenPdf::31                 49808                       # What write queue length does an incoming req see
system.mem_ctrls0.wrQLenPdf::32                 49763                       # What write queue length does an incoming req see
system.mem_ctrls0.wrQLenPdf::33                    26                       # What write queue length does an incoming req see
system.mem_ctrls0.wrQLenPdf::34                     2                       # What write queue length does an incoming req see
system.mem_ctrls0.wrQLenPdf::35                     1                       # What write queue length does an incoming req see
system.mem_ctrls0.wrQLenPdf::36                     1                       # What write queue length does an incoming req see
system.mem_ctrls0.wrQLenPdf::37                     0                       # What write queue length does an incoming req see
system.mem_ctrls0.wrQLenPdf::38                     0                       # What write queue length does an incoming req see
system.mem_ctrls0.wrQLenPdf::39                     0                       # What write queue length does an incoming req see
system.mem_ctrls0.wrQLenPdf::40                     0                       # What write queue length does an incoming req see
system.mem_ctrls0.wrQLenPdf::41                     0                       # What write queue length does an incoming req see
system.mem_ctrls0.wrQLenPdf::42                     0                       # What write queue length does an incoming req see
system.mem_ctrls0.wrQLenPdf::43                     0                       # What write queue length does an incoming req see
system.mem_ctrls0.wrQLenPdf::44                     0                       # What write queue length does an incoming req see
system.mem_ctrls0.wrQLenPdf::45                     0                       # What write queue length does an incoming req see
system.mem_ctrls0.wrQLenPdf::46                     0                       # What write queue length does an incoming req see
system.mem_ctrls0.wrQLenPdf::47                     0                       # What write queue length does an incoming req see
system.mem_ctrls0.wrQLenPdf::48                     0                       # What write queue length does an incoming req see
system.mem_ctrls0.wrQLenPdf::49                     0                       # What write queue length does an incoming req see
system.mem_ctrls0.wrQLenPdf::50                     0                       # What write queue length does an incoming req see
system.mem_ctrls0.wrQLenPdf::51                     0                       # What write queue length does an incoming req see
system.mem_ctrls0.wrQLenPdf::52                     0                       # What write queue length does an incoming req see
system.mem_ctrls0.wrQLenPdf::53                     0                       # What write queue length does an incoming req see
system.mem_ctrls0.wrQLenPdf::54                     0                       # What write queue length does an incoming req see
system.mem_ctrls0.wrQLenPdf::55                     0                       # What write queue length does an incoming req see
system.mem_ctrls0.wrQLenPdf::56                     0                       # What write queue length does an incoming req see
system.mem_ctrls0.wrQLenPdf::57                     0                       # What write queue length does an incoming req see
system.mem_ctrls0.wrQLenPdf::58                     0                       # What write queue length does an incoming req see
system.mem_ctrls0.wrQLenPdf::59                     0                       # What write queue length does an incoming req see
system.mem_ctrls0.wrQLenPdf::60                     0                       # What write queue length does an incoming req see
system.mem_ctrls0.wrQLenPdf::61                     0                       # What write queue length does an incoming req see
system.mem_ctrls0.wrQLenPdf::62                     0                       # What write queue length does an incoming req see
system.mem_ctrls0.wrQLenPdf::63                     0                       # What write queue length does an incoming req see
system.mem_ctrls0.bytesPerActivate::samples      1977157                       # Bytes accessed per row activation
system.mem_ctrls0.bytesPerActivate::mean    99.347659                       # Bytes accessed per row activation
system.mem_ctrls0.bytesPerActivate::gmean    81.358879                       # Bytes accessed per row activation
system.mem_ctrls0.bytesPerActivate::stdev    92.279926                       # Bytes accessed per row activation
system.mem_ctrls0.bytesPerActivate::0-127      1569329     79.37%     79.37% # Bytes accessed per row activation
system.mem_ctrls0.bytesPerActivate::128-255       252141     12.75%     92.13% # Bytes accessed per row activation
system.mem_ctrls0.bytesPerActivate::256-383        71901      3.64%     95.76% # Bytes accessed per row activation
system.mem_ctrls0.bytesPerActivate::384-511        38868      1.97%     97.73% # Bytes accessed per row activation
system.mem_ctrls0.bytesPerActivate::512-639        44231      2.24%     99.97% # Bytes accessed per row activation
system.mem_ctrls0.bytesPerActivate::640-767          503      0.03%     99.99% # Bytes accessed per row activation
system.mem_ctrls0.bytesPerActivate::768-895          112      0.01%    100.00% # Bytes accessed per row activation
system.mem_ctrls0.bytesPerActivate::896-1023           52      0.00%    100.00% # Bytes accessed per row activation
system.mem_ctrls0.bytesPerActivate::1024-1151           20      0.00%    100.00% # Bytes accessed per row activation
system.mem_ctrls0.bytesPerActivate::total      1977157                       # Bytes accessed per row activation
system.mem_ctrls0.rdPerTurnAround::samples        49728                       # Reads before turning the bus around for writes
system.mem_ctrls0.rdPerTurnAround::mean     44.137448                       # Reads before turning the bus around for writes
system.mem_ctrls0.rdPerTurnAround::gmean    41.974127                       # Reads before turning the bus around for writes
system.mem_ctrls0.rdPerTurnAround::stdev   141.220151                       # Reads before turning the bus around for writes
system.mem_ctrls0.rdPerTurnAround::0-1023        49727    100.00%    100.00% # Reads before turning the bus around for writes
system.mem_ctrls0.rdPerTurnAround::30720-31743            1      0.00%    100.00% # Reads before turning the bus around for writes
system.mem_ctrls0.rdPerTurnAround::total        49728                       # Reads before turning the bus around for writes
system.mem_ctrls0.wrPerTurnAround::samples        49728                       # Writes before turning the bus around for reads
system.mem_ctrls0.wrPerTurnAround::mean     17.580860                       # Writes before turning the bus around for reads
system.mem_ctrls0.wrPerTurnAround::gmean    17.558321                       # Writes before turning the bus around for reads
system.mem_ctrls0.wrPerTurnAround::stdev     0.874616                       # Writes before turning the bus around for reads
system.mem_ctrls0.wrPerTurnAround::16           10894     21.91%     21.91% # Writes before turning the bus around for reads
system.mem_ctrls0.wrPerTurnAround::17             950      1.91%     23.82% # Writes before turning the bus around for reads
system.mem_ctrls0.wrPerTurnAround::18           36115     72.63%     96.44% # Writes before turning the bus around for reads
system.mem_ctrls0.wrPerTurnAround::19            1663      3.34%     99.79% # Writes before turning the bus around for reads
system.mem_ctrls0.wrPerTurnAround::20              95      0.19%     99.98% # Writes before turning the bus around for reads
system.mem_ctrls0.wrPerTurnAround::21               9      0.02%    100.00% # Writes before turning the bus around for reads
system.mem_ctrls0.wrPerTurnAround::23               1      0.00%    100.00% # Writes before turning the bus around for reads
system.mem_ctrls0.wrPerTurnAround::28               1      0.00%    100.00% # Writes before turning the bus around for reads
system.mem_ctrls0.wrPerTurnAround::total        49728                       # Writes before turning the bus around for reads
system.mem_ctrls0.totQLat                 59911895480                       # Total ticks spent queuing
system.mem_ctrls0.totMemAccLat           101066345480                       # Total ticks spent from burst creation until serviced by the DRAM
system.mem_ctrls0.totBusLat               10974520000                       # Total ticks spent in databus transfers
system.mem_ctrls0.avgQLat                    27295.91                       # Average queueing delay per DRAM burst
system.mem_ctrls0.avgBusLat                   5000.00                       # Average bus latency per DRAM burst
system.mem_ctrls0.avgMemAccLat               46045.91                       # Average memory access latency per DRAM burst
system.mem_ctrls0.avgRdBW                      100.40                       # Average DRAM read bandwidth in MiByte/s
system.mem_ctrls0.avgWrBW                       39.99                       # Average achieved write bandwidth in MiByte/s
system.mem_ctrls0.avgRdBWSys                   100.40                       # Average system read bandwidth in MiByte/s
system.mem_ctrls0.avgWrBWSys                    39.99                       # Average system write bandwidth in MiByte/s
system.mem_ctrls0.peakBW                     12800.00                       # Theoretical peak bandwidth in MiByte/s
system.mem_ctrls0.busUtil                        1.10                       # Data bus utilization in percentage
system.mem_ctrls0.busUtilRead                    0.78                       # Data bus utilization in percentage for reads
system.mem_ctrls0.busUtilWrite                   0.31                       # Data bus utilization in percentage for writes
system.mem_ctrls0.avgRdQLen                      1.02                       # Average read queue length when enqueuing
system.mem_ctrls0.avgWrQLen                     24.25                       # Average write queue length when enqueuing
system.mem_ctrls0.readRowHits                  898012                       # Number of row buffer hits during reads
system.mem_ctrls0.writeRowHits                 193986                       # Number of row buffer hits during writes
system.mem_ctrls0.readRowHitRate                40.91                       # Row buffer hit rate for reads
system.mem_ctrls0.writeRowHitRate               22.19                       # Row buffer hit rate for writes
system.mem_ctrls0.avgGap                    455877.82                       # Average gap between requests
system.mem_ctrls0.pageHitRate                   35.58                       # Row buffer hit rate, read and write combined
system.mem_ctrls0_0.actEnergy              7055926500                       # Energy for activate commands per rank (pJ)
system.mem_ctrls0_0.preEnergy              3750291105                       # Energy for precharge commands per rank (pJ)
system.mem_ctrls0_0.readEnergy             7839177360                       # Energy for read commands per rank (pJ)
system.mem_ctrls0_0.writeEnergy            2282027400                       # Energy for write commands per rank (pJ)
system.mem_ctrls0_0.refreshEnergy        110865690000.000031                       # Energy for refresh commands per rank (pJ)
system.mem_ctrls0_0.actBackEnergy         64320307650                       # Energy for active background per rank (pJ)
system.mem_ctrls0_0.preBackEnergy          3741655200                       # Energy for precharge background per rank (pJ)
system.mem_ctrls0_0.actPowerDownEnergy   402274766280                       # Energy for active power-down per rank (pJ)
system.mem_ctrls0_0.prePowerDownEnergy   100924209600                       # Energy for precharge power-down per rank (pJ)
system.mem_ctrls0_0.selfRefreshEnergy     33097159755                       # Energy for self refresh per rank (pJ)
system.mem_ctrls0_0.totalEnergy          736179641550                       # Total energy per rank (pJ)
system.mem_ctrls0_0.averagePower           526.145352                       # Core power per rank (mW)
system.mem_ctrls0_0.totalIdleTime        1248334582676                       # Total Idle time Per DRAM Rank
system.mem_ctrls0_0.memoryStateTime::IDLE   4930928513                       # Time in different power states
system.mem_ctrls0_0.memoryStateTime::REF  46989648000                       # Time in different power states
system.mem_ctrls0_0.memoryStateTime::SREF 103328898995                       # Time in different power states
system.mem_ctrls0_0.memoryStateTime::PRE_PDN 262822798191                       # Time in different power states
system.mem_ctrls0_0.memoryStateTime::ACT  98938754605                       # Time in different power states
system.mem_ctrls0_0.memoryStateTime::ACT_PDN 882183375697                       # Time in different power states
system.mem_ctrls0_1.actEnergy              7061045880                       # Energy for activate commands per rank (pJ)
system.mem_ctrls0_1.preEnergy              3753019710                       # Energy for precharge commands per rank (pJ)
system.mem_ctrls0_1.readEnergy             7832437200                       # Energy for read commands per rank (pJ)
system.mem_ctrls0_1.writeEnergy            2281615020                       # Energy for write commands per rank (pJ)
system.mem_ctrls0_1.refreshEnergy        110889046320.000031                       # Energy for refresh commands per rank (pJ)
system.mem_ctrls0_1.actBackEnergy         64355103300                       # Energy for active background per rank (pJ)
system.mem_ctrls0_1.preBackEnergy          3766345920                       # Energy for precharge background per rank (pJ)
system.mem_ctrls0_1.actPowerDownEnergy   401333923140                       # Energy for active power-down per rank (pJ)
system.mem_ctrls0_1.prePowerDownEnergy   100895769600                       # Energy for precharge power-down per rank (pJ)
system.mem_ctrls0_1.selfRefreshEnergy     33750903600                       # Energy for self refresh per rank (pJ)
system.mem_ctrls0_1.totalEnergy          735945336750                       # Total energy per rank (pJ)
system.mem_ctrls0_1.averagePower           525.977900                       # Core power per rank (mW)
system.mem_ctrls0_1.totalIdleTime        1248195307832                       # Total Idle time Per DRAM Rank
system.mem_ctrls0_1.memoryStateTime::IDLE   4994068715                       # Time in different power states
system.mem_ctrls0_1.memoryStateTime::REF  47001340000                       # Time in different power states
system.mem_ctrls0_1.memoryStateTime::SREF 105330760057                       # Time in different power states
system.mem_ctrls0_1.memoryStateTime::PRE_PDN 262748906501                       # Time in different power states
system.mem_ctrls0_1.memoryStateTime::ACT  99003350330                       # Time in different power states
system.mem_ctrls0_1.memoryStateTime::ACT_PDN 880115978398                       # Time in different power states
system.mem_ctrls1.pwrStateResidencyTicks::UNDEFINED 118633890836187                       # Cumulative time (in ticks) in various power states
system.mem_ctrls1.bytes_read::cpu.inst             64                       # Number of bytes read from this memory
system.mem_ctrls1.bytes_read::switch_cpus.inst        22464                       # Number of bytes read from this memory
system.mem_ctrls1.bytes_read::switch_cpus.data    118888896                       # Number of bytes read from this memory
system.mem_ctrls1.bytes_read::switch_cpus_1.inst          320                       # Number of bytes read from this memory
system.mem_ctrls1.bytes_read::switch_cpus_1.data     21613120                       # Number of bytes read from this memory
system.mem_ctrls1.bytes_read::total         140524864                       # Number of bytes read from this memory
system.mem_ctrls1.bytes_inst_read::cpu.inst           64                       # Number of instructions bytes read from this memory
system.mem_ctrls1.bytes_inst_read::switch_cpus.inst        22464                       # Number of instructions bytes read from this memory
system.mem_ctrls1.bytes_inst_read::switch_cpus_1.inst          320                       # Number of instructions bytes read from this memory
system.mem_ctrls1.bytes_inst_read::total        22848                       # Number of instructions bytes read from this memory
system.mem_ctrls1.bytes_written::writebacks     55941056                       # Number of bytes written to this memory
system.mem_ctrls1.bytes_written::total       55941056                       # Number of bytes written to this memory
system.mem_ctrls1.num_reads::cpu.inst               1                       # Number of read requests responded to by this memory
system.mem_ctrls1.num_reads::switch_cpus.inst          351                       # Number of read requests responded to by this memory
system.mem_ctrls1.num_reads::switch_cpus.data      1857639                       # Number of read requests responded to by this memory
system.mem_ctrls1.num_reads::switch_cpus_1.inst            5                       # Number of read requests responded to by this memory
system.mem_ctrls1.num_reads::switch_cpus_1.data       337705                       # Number of read requests responded to by this memory
system.mem_ctrls1.num_reads::total            2195701                       # Number of read requests responded to by this memory
system.mem_ctrls1.num_writes::writebacks       874079                       # Number of write requests responded to by this memory
system.mem_ctrls1.num_writes::total            874079                       # Number of write requests responded to by this memory
system.mem_ctrls1.bw_read::cpu.inst                46                       # Total read bandwidth from this memory (bytes/s)
system.mem_ctrls1.bw_read::switch_cpus.inst        16055                       # Total read bandwidth from this memory (bytes/s)
system.mem_ctrls1.bw_read::switch_cpus.data     84969534                       # Total read bandwidth from this memory (bytes/s)
system.mem_ctrls1.bw_read::switch_cpus_1.inst          229                       # Total read bandwidth from this memory (bytes/s)
system.mem_ctrls1.bw_read::switch_cpus_1.data     15446831                       # Total read bandwidth from this memory (bytes/s)
system.mem_ctrls1.bw_read::total            100432694                       # Total read bandwidth from this memory (bytes/s)
system.mem_ctrls1.bw_inst_read::cpu.inst           46                       # Instruction read bandwidth from this memory (bytes/s)
system.mem_ctrls1.bw_inst_read::switch_cpus.inst        16055                       # Instruction read bandwidth from this memory (bytes/s)
system.mem_ctrls1.bw_inst_read::switch_cpus_1.inst          229                       # Instruction read bandwidth from this memory (bytes/s)
system.mem_ctrls1.bw_inst_read::total           16329                       # Instruction read bandwidth from this memory (bytes/s)
system.mem_ctrls1.bw_write::writebacks       39980903                       # Write bandwidth from this memory (bytes/s)
system.mem_ctrls1.bw_write::total            39980903                       # Write bandwidth from this memory (bytes/s)
system.mem_ctrls1.bw_total::writebacks       39980903                       # Total bandwidth to/from this memory (bytes/s)
system.mem_ctrls1.bw_total::cpu.inst               46                       # Total bandwidth to/from this memory (bytes/s)
system.mem_ctrls1.bw_total::switch_cpus.inst        16055                       # Total bandwidth to/from this memory (bytes/s)
system.mem_ctrls1.bw_total::switch_cpus.data     84969534                       # Total bandwidth to/from this memory (bytes/s)
system.mem_ctrls1.bw_total::switch_cpus_1.inst          229                       # Total bandwidth to/from this memory (bytes/s)
system.mem_ctrls1.bw_total::switch_cpus_1.data     15446831                       # Total bandwidth to/from this memory (bytes/s)
system.mem_ctrls1.bw_total::total           140413598                       # Total bandwidth to/from this memory (bytes/s)
system.mem_ctrls1.readReqs                    2195701                       # Number of read requests accepted
system.mem_ctrls1.writeReqs                    874079                       # Number of write requests accepted
system.mem_ctrls1.readBursts                  2195701                       # Number of DRAM read bursts, including those serviced by the write queue
system.mem_ctrls1.writeBursts                  874079                       # Number of DRAM write bursts, including those merged in the write queue
system.mem_ctrls1.bytesReadDRAM             140522432                       # Total number of bytes read from DRAM
system.mem_ctrls1.bytesReadWrQ                   2432                       # Total number of bytes read from write queue
system.mem_ctrls1.bytesWritten               55939008                       # Total number of bytes written to DRAM
system.mem_ctrls1.bytesReadSys              140524864                       # Total read bytes from the system interface side
system.mem_ctrls1.bytesWrittenSys            55941056                       # Total written bytes from the system interface side
system.mem_ctrls1.servicedByWrQ                    38                       # Number of DRAM read bursts serviced by the write queue
system.mem_ctrls1.mergedWrBursts                    0                       # Number of DRAM write bursts merged with an existing one
system.mem_ctrls1.neitherReadNorWriteReqs            0                       # Number of requests that are neither read nor write
system.mem_ctrls1.perBankRdBursts::0           136860                       # Per bank write bursts
system.mem_ctrls1.perBankRdBursts::1           137489                       # Per bank write bursts
system.mem_ctrls1.perBankRdBursts::2           137713                       # Per bank write bursts
system.mem_ctrls1.perBankRdBursts::3           137117                       # Per bank write bursts
system.mem_ctrls1.perBankRdBursts::4           137992                       # Per bank write bursts
system.mem_ctrls1.perBankRdBursts::5           136978                       # Per bank write bursts
system.mem_ctrls1.perBankRdBursts::6           137839                       # Per bank write bursts
system.mem_ctrls1.perBankRdBursts::7           136818                       # Per bank write bursts
system.mem_ctrls1.perBankRdBursts::8           137132                       # Per bank write bursts
system.mem_ctrls1.perBankRdBursts::9           137684                       # Per bank write bursts
system.mem_ctrls1.perBankRdBursts::10          137048                       # Per bank write bursts
system.mem_ctrls1.perBankRdBursts::11          137524                       # Per bank write bursts
system.mem_ctrls1.perBankRdBursts::12          137209                       # Per bank write bursts
system.mem_ctrls1.perBankRdBursts::13          136305                       # Per bank write bursts
system.mem_ctrls1.perBankRdBursts::14          136919                       # Per bank write bursts
system.mem_ctrls1.perBankRdBursts::15          137036                       # Per bank write bursts
system.mem_ctrls1.perBankWrBursts::0            54516                       # Per bank write bursts
system.mem_ctrls1.perBankWrBursts::1            54346                       # Per bank write bursts
system.mem_ctrls1.perBankWrBursts::2            54609                       # Per bank write bursts
system.mem_ctrls1.perBankWrBursts::3            54669                       # Per bank write bursts
system.mem_ctrls1.perBankWrBursts::4            54614                       # Per bank write bursts
system.mem_ctrls1.perBankWrBursts::5            54562                       # Per bank write bursts
system.mem_ctrls1.perBankWrBursts::6            55214                       # Per bank write bursts
system.mem_ctrls1.perBankWrBursts::7            54462                       # Per bank write bursts
system.mem_ctrls1.perBankWrBursts::8            54761                       # Per bank write bursts
system.mem_ctrls1.perBankWrBursts::9            54968                       # Per bank write bursts
system.mem_ctrls1.perBankWrBursts::10           54622                       # Per bank write bursts
system.mem_ctrls1.perBankWrBursts::11           54555                       # Per bank write bursts
system.mem_ctrls1.perBankWrBursts::12           54688                       # Per bank write bursts
system.mem_ctrls1.perBankWrBursts::13           54553                       # Per bank write bursts
system.mem_ctrls1.perBankWrBursts::14           54489                       # Per bank write bursts
system.mem_ctrls1.perBankWrBursts::15           54419                       # Per bank write bursts
system.mem_ctrls1.numRdRetry                        0                       # Number of times read queue was full causing retry
system.mem_ctrls1.numWrRetry                        0                       # Number of times write queue was full causing retry
system.mem_ctrls1.totGap                 1399194197208                       # Total gap between requests
system.mem_ctrls1.readPktSize::0                    0                       # Read request sizes (log2)
system.mem_ctrls1.readPktSize::1                    0                       # Read request sizes (log2)
system.mem_ctrls1.readPktSize::2                    0                       # Read request sizes (log2)
system.mem_ctrls1.readPktSize::3                    0                       # Read request sizes (log2)
system.mem_ctrls1.readPktSize::4                    0                       # Read request sizes (log2)
system.mem_ctrls1.readPktSize::5                    0                       # Read request sizes (log2)
system.mem_ctrls1.readPktSize::6              2195701                       # Read request sizes (log2)
system.mem_ctrls1.writePktSize::0                   0                       # Write request sizes (log2)
system.mem_ctrls1.writePktSize::1                   0                       # Write request sizes (log2)
system.mem_ctrls1.writePktSize::2                   0                       # Write request sizes (log2)
system.mem_ctrls1.writePktSize::3                   0                       # Write request sizes (log2)
system.mem_ctrls1.writePktSize::4                   0                       # Write request sizes (log2)
system.mem_ctrls1.writePktSize::5                   0                       # Write request sizes (log2)
system.mem_ctrls1.writePktSize::6              874079                       # Write request sizes (log2)
system.mem_ctrls1.rdQLenPdf::0                2106250                       # What read queue length does an incoming req see
system.mem_ctrls1.rdQLenPdf::1                  74226                       # What read queue length does an incoming req see
system.mem_ctrls1.rdQLenPdf::2                  13531                       # What read queue length does an incoming req see
system.mem_ctrls1.rdQLenPdf::3                   1656                       # What read queue length does an incoming req see
system.mem_ctrls1.rdQLenPdf::4                      0                       # What read queue length does an incoming req see
system.mem_ctrls1.rdQLenPdf::5                      0                       # What read queue length does an incoming req see
system.mem_ctrls1.rdQLenPdf::6                      0                       # What read queue length does an incoming req see
system.mem_ctrls1.rdQLenPdf::7                      0                       # What read queue length does an incoming req see
system.mem_ctrls1.rdQLenPdf::8                      0                       # What read queue length does an incoming req see
system.mem_ctrls1.rdQLenPdf::9                      0                       # What read queue length does an incoming req see
system.mem_ctrls1.rdQLenPdf::10                     0                       # What read queue length does an incoming req see
system.mem_ctrls1.rdQLenPdf::11                     0                       # What read queue length does an incoming req see
system.mem_ctrls1.rdQLenPdf::12                     0                       # What read queue length does an incoming req see
system.mem_ctrls1.rdQLenPdf::13                     0                       # What read queue length does an incoming req see
system.mem_ctrls1.rdQLenPdf::14                     0                       # What read queue length does an incoming req see
system.mem_ctrls1.rdQLenPdf::15                     0                       # What read queue length does an incoming req see
system.mem_ctrls1.rdQLenPdf::16                     0                       # What read queue length does an incoming req see
system.mem_ctrls1.rdQLenPdf::17                     0                       # What read queue length does an incoming req see
system.mem_ctrls1.rdQLenPdf::18                     0                       # What read queue length does an incoming req see
system.mem_ctrls1.rdQLenPdf::19                     0                       # What read queue length does an incoming req see
system.mem_ctrls1.rdQLenPdf::20                     0                       # What read queue length does an incoming req see
system.mem_ctrls1.rdQLenPdf::21                     0                       # What read queue length does an incoming req see
system.mem_ctrls1.rdQLenPdf::22                     0                       # What read queue length does an incoming req see
system.mem_ctrls1.rdQLenPdf::23                     0                       # What read queue length does an incoming req see
system.mem_ctrls1.rdQLenPdf::24                     0                       # What read queue length does an incoming req see
system.mem_ctrls1.rdQLenPdf::25                     0                       # What read queue length does an incoming req see
system.mem_ctrls1.rdQLenPdf::26                     0                       # What read queue length does an incoming req see
system.mem_ctrls1.rdQLenPdf::27                     0                       # What read queue length does an incoming req see
system.mem_ctrls1.rdQLenPdf::28                     0                       # What read queue length does an incoming req see
system.mem_ctrls1.rdQLenPdf::29                     0                       # What read queue length does an incoming req see
system.mem_ctrls1.rdQLenPdf::30                     0                       # What read queue length does an incoming req see
system.mem_ctrls1.rdQLenPdf::31                     0                       # What read queue length does an incoming req see
system.mem_ctrls1.wrQLenPdf::0                      2                       # What write queue length does an incoming req see
system.mem_ctrls1.wrQLenPdf::1                      2                       # What write queue length does an incoming req see
system.mem_ctrls1.wrQLenPdf::2                      2                       # What write queue length does an incoming req see
system.mem_ctrls1.wrQLenPdf::3                      2                       # What write queue length does an incoming req see
system.mem_ctrls1.wrQLenPdf::4                      2                       # What write queue length does an incoming req see
system.mem_ctrls1.wrQLenPdf::5                      2                       # What write queue length does an incoming req see
system.mem_ctrls1.wrQLenPdf::6                      2                       # What write queue length does an incoming req see
system.mem_ctrls1.wrQLenPdf::7                      2                       # What write queue length does an incoming req see
system.mem_ctrls1.wrQLenPdf::8                      2                       # What write queue length does an incoming req see
system.mem_ctrls1.wrQLenPdf::9                      2                       # What write queue length does an incoming req see
system.mem_ctrls1.wrQLenPdf::10                     2                       # What write queue length does an incoming req see
system.mem_ctrls1.wrQLenPdf::11                     2                       # What write queue length does an incoming req see
system.mem_ctrls1.wrQLenPdf::12                     2                       # What write queue length does an incoming req see
system.mem_ctrls1.wrQLenPdf::13                     2                       # What write queue length does an incoming req see
system.mem_ctrls1.wrQLenPdf::14                     2                       # What write queue length does an incoming req see
system.mem_ctrls1.wrQLenPdf::15                 37822                       # What write queue length does an incoming req see
system.mem_ctrls1.wrQLenPdf::16                 38826                       # What write queue length does an incoming req see
system.mem_ctrls1.wrQLenPdf::17                 48875                       # What write queue length does an incoming req see
system.mem_ctrls1.wrQLenPdf::18                 49725                       # What write queue length does an incoming req see
system.mem_ctrls1.wrQLenPdf::19                 49802                       # What write queue length does an incoming req see
system.mem_ctrls1.wrQLenPdf::20                 49796                       # What write queue length does an incoming req see
system.mem_ctrls1.wrQLenPdf::21                 49794                       # What write queue length does an incoming req see
system.mem_ctrls1.wrQLenPdf::22                 49877                       # What write queue length does an incoming req see
system.mem_ctrls1.wrQLenPdf::23                 49885                       # What write queue length does an incoming req see
system.mem_ctrls1.wrQLenPdf::24                 49922                       # What write queue length does an incoming req see
system.mem_ctrls1.wrQLenPdf::25                 50344                       # What write queue length does an incoming req see
system.mem_ctrls1.wrQLenPdf::26                 50061                       # What write queue length does an incoming req see
system.mem_ctrls1.wrQLenPdf::27                 49894                       # What write queue length does an incoming req see
system.mem_ctrls1.wrQLenPdf::28                 49884                       # What write queue length does an incoming req see
system.mem_ctrls1.wrQLenPdf::29                 49915                       # What write queue length does an incoming req see
system.mem_ctrls1.wrQLenPdf::30                 50017                       # What write queue length does an incoming req see
system.mem_ctrls1.wrQLenPdf::31                 49824                       # What write queue length does an incoming req see
system.mem_ctrls1.wrQLenPdf::32                 49758                       # What write queue length does an incoming req see
system.mem_ctrls1.wrQLenPdf::33                    25                       # What write queue length does an incoming req see
system.mem_ctrls1.wrQLenPdf::34                     3                       # What write queue length does an incoming req see
system.mem_ctrls1.wrQLenPdf::35                     0                       # What write queue length does an incoming req see
system.mem_ctrls1.wrQLenPdf::36                     0                       # What write queue length does an incoming req see
system.mem_ctrls1.wrQLenPdf::37                     0                       # What write queue length does an incoming req see
system.mem_ctrls1.wrQLenPdf::38                     0                       # What write queue length does an incoming req see
system.mem_ctrls1.wrQLenPdf::39                     0                       # What write queue length does an incoming req see
system.mem_ctrls1.wrQLenPdf::40                     0                       # What write queue length does an incoming req see
system.mem_ctrls1.wrQLenPdf::41                     0                       # What write queue length does an incoming req see
system.mem_ctrls1.wrQLenPdf::42                     0                       # What write queue length does an incoming req see
system.mem_ctrls1.wrQLenPdf::43                     0                       # What write queue length does an incoming req see
system.mem_ctrls1.wrQLenPdf::44                     0                       # What write queue length does an incoming req see
system.mem_ctrls1.wrQLenPdf::45                     0                       # What write queue length does an incoming req see
system.mem_ctrls1.wrQLenPdf::46                     0                       # What write queue length does an incoming req see
system.mem_ctrls1.wrQLenPdf::47                     0                       # What write queue length does an incoming req see
system.mem_ctrls1.wrQLenPdf::48                     0                       # What write queue length does an incoming req see
system.mem_ctrls1.wrQLenPdf::49                     0                       # What write queue length does an incoming req see
system.mem_ctrls1.wrQLenPdf::50                     0                       # What write queue length does an incoming req see
system.mem_ctrls1.wrQLenPdf::51                     0                       # What write queue length does an incoming req see
system.mem_ctrls1.wrQLenPdf::52                     0                       # What write queue length does an incoming req see
system.mem_ctrls1.wrQLenPdf::53                     0                       # What write queue length does an incoming req see
system.mem_ctrls1.wrQLenPdf::54                     0                       # What write queue length does an incoming req see
system.mem_ctrls1.wrQLenPdf::55                     0                       # What write queue length does an incoming req see
system.mem_ctrls1.wrQLenPdf::56                     0                       # What write queue length does an incoming req see
system.mem_ctrls1.wrQLenPdf::57                     0                       # What write queue length does an incoming req see
system.mem_ctrls1.wrQLenPdf::58                     0                       # What write queue length does an incoming req see
system.mem_ctrls1.wrQLenPdf::59                     0                       # What write queue length does an incoming req see
system.mem_ctrls1.wrQLenPdf::60                     0                       # What write queue length does an incoming req see
system.mem_ctrls1.wrQLenPdf::61                     0                       # What write queue length does an incoming req see
system.mem_ctrls1.wrQLenPdf::62                     0                       # What write queue length does an incoming req see
system.mem_ctrls1.wrQLenPdf::63                     0                       # What write queue length does an incoming req see
system.mem_ctrls1.bytesPerActivate::samples      1977442                       # Bytes accessed per row activation
system.mem_ctrls1.bytesPerActivate::mean    99.350883                       # Bytes accessed per row activation
system.mem_ctrls1.bytesPerActivate::gmean    81.356711                       # Bytes accessed per row activation
system.mem_ctrls1.bytesPerActivate::stdev    92.276329                       # Bytes accessed per row activation
system.mem_ctrls1.bytesPerActivate::0-127      1569968     79.39%     79.39% # Bytes accessed per row activation
system.mem_ctrls1.bytesPerActivate::128-255       251490     12.72%     92.11% # Bytes accessed per row activation
system.mem_ctrls1.bytesPerActivate::256-383        72118      3.65%     95.76% # Bytes accessed per row activation
system.mem_ctrls1.bytesPerActivate::384-511        39097      1.98%     97.74% # Bytes accessed per row activation
system.mem_ctrls1.bytesPerActivate::512-639        44103      2.23%     99.97% # Bytes accessed per row activation
system.mem_ctrls1.bytesPerActivate::640-767          447      0.02%     99.99% # Bytes accessed per row activation
system.mem_ctrls1.bytesPerActivate::768-895          142      0.01%    100.00% # Bytes accessed per row activation
system.mem_ctrls1.bytesPerActivate::896-1023           61      0.00%    100.00% # Bytes accessed per row activation
system.mem_ctrls1.bytesPerActivate::1024-1151           16      0.00%    100.00% # Bytes accessed per row activation
system.mem_ctrls1.bytesPerActivate::total      1977442                       # Bytes accessed per row activation
system.mem_ctrls1.rdPerTurnAround::samples        49720                       # Reads before turning the bus around for writes
system.mem_ctrls1.rdPerTurnAround::mean     44.159815                       # Reads before turning the bus around for writes
system.mem_ctrls1.rdPerTurnAround::gmean    42.005417                       # Reads before turning the bus around for writes
system.mem_ctrls1.rdPerTurnAround::stdev   140.953862                       # Reads before turning the bus around for writes
system.mem_ctrls1.rdPerTurnAround::0-1023        49719    100.00%    100.00% # Reads before turning the bus around for writes
system.mem_ctrls1.rdPerTurnAround::30720-31743            1      0.00%    100.00% # Reads before turning the bus around for writes
system.mem_ctrls1.rdPerTurnAround::total        49720                       # Reads before turning the bus around for writes
system.mem_ctrls1.wrPerTurnAround::samples        49720                       # Writes before turning the bus around for reads
system.mem_ctrls1.wrPerTurnAround::mean     17.579385                       # Writes before turning the bus around for reads
system.mem_ctrls1.wrPerTurnAround::gmean    17.556976                       # Writes before turning the bus around for reads
system.mem_ctrls1.wrPerTurnAround::stdev     0.871575                       # Writes before turning the bus around for reads
system.mem_ctrls1.wrPerTurnAround::16           10892     21.91%     21.91% # Writes before turning the bus around for reads
system.mem_ctrls1.wrPerTurnAround::17             937      1.88%     23.79% # Writes before turning the bus around for reads
system.mem_ctrls1.wrPerTurnAround::18           36196     72.80%     96.59% # Writes before turning the bus around for reads
system.mem_ctrls1.wrPerTurnAround::19            1595      3.21%     99.80% # Writes before turning the bus around for reads
system.mem_ctrls1.wrPerTurnAround::20              87      0.17%     99.97% # Writes before turning the bus around for reads
system.mem_ctrls1.wrPerTurnAround::21              13      0.03%    100.00% # Writes before turning the bus around for reads
system.mem_ctrls1.wrPerTurnAround::total        49720                       # Writes before turning the bus around for reads
system.mem_ctrls1.totQLat                 59813696857                       # Total ticks spent queuing
system.mem_ctrls1.totMemAccLat           100982378107                       # Total ticks spent from burst creation until serviced by the DRAM
system.mem_ctrls1.totBusLat               10978315000                       # Total ticks spent in databus transfers
system.mem_ctrls1.avgQLat                    27241.75                       # Average queueing delay per DRAM burst
system.mem_ctrls1.avgBusLat                   5000.00                       # Average bus latency per DRAM burst
system.mem_ctrls1.avgMemAccLat               45991.75                       # Average memory access latency per DRAM burst
system.mem_ctrls1.avgRdBW                      100.43                       # Average DRAM read bandwidth in MiByte/s
system.mem_ctrls1.avgWrBW                       39.98                       # Average achieved write bandwidth in MiByte/s
system.mem_ctrls1.avgRdBWSys                   100.43                       # Average system read bandwidth in MiByte/s
system.mem_ctrls1.avgWrBWSys                    39.98                       # Average system write bandwidth in MiByte/s
system.mem_ctrls1.peakBW                     12800.00                       # Theoretical peak bandwidth in MiByte/s
system.mem_ctrls1.busUtil                        1.10                       # Data bus utilization in percentage
system.mem_ctrls1.busUtilRead                    0.78                       # Data bus utilization in percentage for reads
system.mem_ctrls1.busUtilWrite                   0.31                       # Data bus utilization in percentage for writes
system.mem_ctrls1.avgRdQLen                      1.02                       # Average read queue length when enqueuing
system.mem_ctrls1.avgWrQLen                     24.27                       # Average write queue length when enqueuing
system.mem_ctrls1.readRowHits                  898111                       # Number of row buffer hits during reads
system.mem_ctrls1.writeRowHits                 194144                       # Number of row buffer hits during writes
system.mem_ctrls1.readRowHitRate                40.90                       # Row buffer hit rate for reads
system.mem_ctrls1.writeRowHitRate               22.21                       # Row buffer hit rate for writes
system.mem_ctrls1.avgGap                    455796.25                       # Average gap between requests
system.mem_ctrls1.pageHitRate                   35.58                       # Row buffer hit rate, read and write combined
system.mem_ctrls1_0.actEnergy              7054220040                       # Energy for activate commands per rank (pJ)
system.mem_ctrls1_0.preEnergy              3749380305                       # Energy for precharge commands per rank (pJ)
system.mem_ctrls1_0.readEnergy             7845474840                       # Energy for read commands per rank (pJ)
system.mem_ctrls1_0.writeEnergy            2281098240                       # Energy for write commands per rank (pJ)
system.mem_ctrls1_0.refreshEnergy        110865690000.000031                       # Energy for refresh commands per rank (pJ)
system.mem_ctrls1_0.actBackEnergy         64287676860                       # Energy for active background per rank (pJ)
system.mem_ctrls1_0.preBackEnergy          3728568960                       # Energy for precharge background per rank (pJ)
system.mem_ctrls1_0.actPowerDownEnergy   402306180690                       # Energy for active power-down per rank (pJ)
system.mem_ctrls1_0.prePowerDownEnergy   100994558400                       # Energy for precharge power-down per rank (pJ)
system.mem_ctrls1_0.selfRefreshEnergy     33050611995                       # Energy for self refresh per rank (pJ)
system.mem_ctrls1_0.totalEnergy          736189789260                       # Total energy per rank (pJ)
system.mem_ctrls1_0.averagePower           526.152610                       # Core power per rank (mW)
system.mem_ctrls1_0.totalIdleTime        1248452919506                       # Total Idle time Per DRAM Rank
system.mem_ctrls1_0.memoryStateTime::IDLE   4891044525                       # Time in different power states
system.mem_ctrls1_0.memoryStateTime::REF  46989522000                       # Time in different power states
system.mem_ctrls1_0.memoryStateTime::SREF 103187168117                       # Time in different power states
system.mem_ctrls1_0.memoryStateTime::PRE_PDN 263001925379                       # Time in different power states
system.mem_ctrls1_0.memoryStateTime::ACT  98860815216                       # Time in different power states
system.mem_ctrls1_0.memoryStateTime::ACT_PDN 882263928764                       # Time in different power states
system.mem_ctrls1_1.actEnergy              7064808660                       # Energy for activate commands per rank (pJ)
system.mem_ctrls1_1.preEnergy              3755012085                       # Energy for precharge commands per rank (pJ)
system.mem_ctrls1_1.readEnergy             7831558980                       # Energy for read commands per rank (pJ)
system.mem_ctrls1_1.writeEnergy            2281427100                       # Energy for write commands per rank (pJ)
system.mem_ctrls1_1.refreshEnergy        110850938640.000031                       # Energy for refresh commands per rank (pJ)
system.mem_ctrls1_1.actBackEnergy         64272091920                       # Energy for active background per rank (pJ)
system.mem_ctrls1_1.preBackEnergy          3747084000                       # Energy for precharge background per rank (pJ)
system.mem_ctrls1_1.actPowerDownEnergy   402097841700                       # Energy for active power-down per rank (pJ)
system.mem_ctrls1_1.prePowerDownEnergy   100536348960                       # Energy for precharge power-down per rank (pJ)
system.mem_ctrls1_1.selfRefreshEnergy     33554194830                       # Energy for self refresh per rank (pJ)
system.mem_ctrls1_1.totalEnergy          736020739755                       # Total energy per rank (pJ)
system.mem_ctrls1_1.averagePower           526.031789                       # Core power per rank (mW)
system.mem_ctrls1_1.totalIdleTime        1248429174871                       # Total Idle time Per DRAM Rank
system.mem_ctrls1_1.memoryStateTime::IDLE   4951413583                       # Time in different power states
system.mem_ctrls1_1.memoryStateTime::REF  46984824000                       # Time in different power states
system.mem_ctrls1_1.memoryStateTime::SREF 104816352585                       # Time in different power states
system.mem_ctrls1_1.memoryStateTime::PRE_PDN 261814998662                       # Time in different power states
system.mem_ctrls1_1.memoryStateTime::ACT  98828881293                       # Time in different power states
system.mem_ctrls1_1.memoryStateTime::ACT_PDN 881797933878                       # Time in different power states
system.pwrStateResidencyTicks::UNDEFINED 118633890836187                       # Cumulative time (in ticks) in various power states
system.cpu.branchPred.lookups                       0                       # Number of BP lookups
system.cpu.branchPred.condPredicted                 0                       # Number of conditional branches predicted
system.cpu.branchPred.condIncorrect                 0                       # Number of conditional branches incorrect
system.cpu.branchPred.BTBLookups                    0                       # Number of BTB lookups
system.cpu.branchPred.BTBHits                       0                       # Number of BTB hits
system.cpu.branchPred.BTBCorrect                    0                       # Number of correct BTB predictions (this stat may not work properly.
system.cpu.branchPred.BTBHitPct                   nan                       # BTB Hit Percentage
system.cpu.branchPred.usedRAS                       0                       # Number of times the RAS was used to get a target.
system.cpu.branchPred.RASInCorrect                  0                       # Number of incorrect RAS predictions.
system.cpu.branchPred.indirectLookups               0                       # Number of indirect predictor lookups.
system.cpu.branchPred.indirectHits                  0                       # Number of indirect target hits.
system.cpu.branchPred.indirectMisses                0                       # Number of indirect misses.
system.cpu.branchPredindirectMispredicted            0                       # Number of mispredicted indirect branches.
system.cpu_voltage_domain.voltage                   1                       # Voltage in Volts
system.cpu_clk_domain.clock                       333                       # Clock period in ticks
system.cpu.dtb.fetch_hits                           0                       # ITB hits
system.cpu.dtb.fetch_misses                         0                       # ITB misses
system.cpu.dtb.fetch_acv                            0                       # ITB acv
system.cpu.dtb.fetch_accesses                       0                       # ITB accesses
system.cpu.dtb.read_hits                            0                       # DTB read hits
system.cpu.dtb.read_misses                          0                       # DTB read misses
system.cpu.dtb.read_acv                             0                       # DTB read access violations
system.cpu.dtb.read_accesses                        0                       # DTB read accesses
system.cpu.dtb.write_hits                           0                       # DTB write hits
system.cpu.dtb.write_misses                         0                       # DTB write misses
system.cpu.dtb.write_acv                            0                       # DTB write access violations
system.cpu.dtb.write_accesses                       0                       # DTB write accesses
system.cpu.dtb.data_hits                            0                       # DTB hits
system.cpu.dtb.data_misses                          0                       # DTB misses
system.cpu.dtb.data_acv                             0                       # DTB access violations
system.cpu.dtb.data_accesses                        0                       # DTB accesses
system.cpu.itb.fetch_hits                           3                       # ITB hits
system.cpu.itb.fetch_misses                         0                       # ITB misses
system.cpu.itb.fetch_acv                            0                       # ITB acv
system.cpu.itb.fetch_accesses                       3                       # ITB accesses
system.cpu.itb.read_hits                            0                       # DTB read hits
system.cpu.itb.read_misses                          0                       # DTB read misses
system.cpu.itb.read_acv                             0                       # DTB read access violations
system.cpu.itb.read_accesses                        0                       # DTB read accesses
system.cpu.itb.write_hits                           0                       # DTB write hits
system.cpu.itb.write_misses                         0                       # DTB write misses
system.cpu.itb.write_acv                            0                       # DTB write access violations
system.cpu.itb.write_accesses                       0                       # DTB write accesses
system.cpu.itb.data_hits                            0                       # DTB hits
system.cpu.itb.data_misses                          0                       # DTB misses
system.cpu.itb.data_acv                             0                       # DTB access violations
system.cpu.itb.data_accesses                        0                       # DTB accesses
system.cpu.workload.num_syscalls                    0                       # Number of system calls
system.cpu.pwrStateResidencyTicks::ON    1399194404001                       # Cumulative time (in ticks) in various power states
system.cpu.numCycles                              372                       # number of cpu cycles simulated
system.cpu.numWorkItemsStarted                      0                       # number of work items this cpu started
system.cpu.numWorkItemsCompleted                    0                       # number of work items this cpu completed
system.cpu.fetch.icacheStallCycles                 23                       # Number of cycles fetch is stalled on an Icache miss
system.cpu.fetch.Insts                              7                       # Number of instructions fetch has processed
system.cpu.fetch.Cycles                             1                       # Number of cycles fetch has run and was not squashing or blocked
system.cpu.fetch.SquashCycles                       3                       # Number of cycles fetch has spent squashing
system.cpu.fetch.PendingDrainCycles                 3                       # Number of cycles fetch has spent waiting on pipes to drain
system.cpu.fetch.CacheLines                         3                       # Number of cache lines fetched
system.cpu.fetch.IcacheSquashes                     2                       # Number of outstanding Icache misses that were squashed
system.cpu.fetch.rateDist::samples                 28                       # Number of instructions fetched each cycle (Total)
system.cpu.fetch.rateDist::mean              0.250000                       # Number of instructions fetched each cycle (Total)
system.cpu.fetch.rateDist::stdev             1.322876                       # Number of instructions fetched each cycle (Total)
system.cpu.fetch.rateDist::underflows               0      0.00%      0.00% # Number of instructions fetched each cycle (Total)
system.cpu.fetch.rateDist::0                       27     96.43%     96.43% # Number of instructions fetched each cycle (Total)
system.cpu.fetch.rateDist::1                        0      0.00%     96.43% # Number of instructions fetched each cycle (Total)
system.cpu.fetch.rateDist::2                        0      0.00%     96.43% # Number of instructions fetched each cycle (Total)
system.cpu.fetch.rateDist::3                        0      0.00%     96.43% # Number of instructions fetched each cycle (Total)
system.cpu.fetch.rateDist::4                        0      0.00%     96.43% # Number of instructions fetched each cycle (Total)
system.cpu.fetch.rateDist::5                        0      0.00%     96.43% # Number of instructions fetched each cycle (Total)
system.cpu.fetch.rateDist::6                        0      0.00%     96.43% # Number of instructions fetched each cycle (Total)
system.cpu.fetch.rateDist::7                        1      3.57%    100.00% # Number of instructions fetched each cycle (Total)
system.cpu.fetch.rateDist::8                        0      0.00%    100.00% # Number of instructions fetched each cycle (Total)
system.cpu.fetch.rateDist::overflows                0      0.00%    100.00% # Number of instructions fetched each cycle (Total)
system.cpu.fetch.rateDist::min_value                0                       # Number of instructions fetched each cycle (Total)
system.cpu.fetch.rateDist::max_value                7                       # Number of instructions fetched each cycle (Total)
system.cpu.fetch.rateDist::total                   28                       # Number of instructions fetched each cycle (Total)
system.cpu.fetch.branchRate                         0                       # Number of branch fetches per cycle
system.cpu.fetch.rate                        0.018817                       # Number of inst fetches per cycle
system.cpu.decode.IdleCycles                       25                       # Number of cycles decode is idle
[...]
system.switch_cpus_1.iq.fu_busy_rate         0.124760                       # FU busy rate (busy events/executed inst)
system.switch_cpus_1.iq.int_inst_queue_reads    381385926                       # Number of integer instruction queue reads
system.switch_cpus_1.iq.int_inst_queue_writes     88304076                       # Number of integer instruction queue writes
system.switch_cpus_1.iq.int_inst_queue_wakeup_accesses     82016595                       # Number of integer instruction queue wakeup accesses
system.switch_cpus_1.iq.fp_inst_queue_reads    277288885                       # Number of floating instruction queue reads
system.switch_cpus_1.iq.fp_inst_queue_writes    139211679                       # Number of floating instruction queue writes
system.switch_cpus_1.iq.fp_inst_queue_wakeup_accesses    125975629                       # Number of floating instruction queue wakeup accesses
system.switch_cpus_1.iq.int_alu_accesses     84664101                       # Number of integer alu accesses
system.switch_cpus_1.iq.fp_alu_accesses     150511282                       # Number of floating point alu accesses
system.switch_cpus_1.iew.lsq.thread0.forwLoads      1421927                       # Number of loads that had data forwarded from stores
system.switch_cpus_1.iew.lsq.thread0.invAddrLoads            0                       # Number of loads ignored due to an invalid address
system.switch_cpus_1.iew.lsq.thread0.squashedLoads      3337642                       # Number of loads squashed
system.switch_cpus_1.iew.lsq.thread0.ignoredResponses           52                       # Number of memory responses ignored because the instruction is squashed
system.switch_cpus_1.iew.lsq.thread0.memOrderViolation         1772                       # Number of memory ordering violations
system.switch_cpus_1.iew.lsq.thread0.squashedStores       796388                       # Number of stores squashed
system.switch_cpus_1.iew.lsq.thread0.invAddrSwpfs            0                       # Number of software prefetches ignored due to an invalid address
system.switch_cpus_1.iew.lsq.thread0.blockedLoads            0                       # Number of blocked loads due to partial load-store forwarding
system.switch_cpus_1.iew.lsq.thread0.rescheduledLoads            0                       # Number of loads that were rescheduled
system.switch_cpus_1.iew.lsq.thread0.cacheBlocked       308236                       # Number of times an access to memory failed due to the cache being blocked
system.switch_cpus_1.iew.iewIdleCycles              0                       # Number of cycles IEW is idle
system.switch_cpus_1.iew.iewSquashCycles       140418                       # Number of cycles IEW is squashing
system.switch_cpus_1.iew.iewBlockCycles      46309662                       # Number of cycles IEW is blocking
system.switch_cpus_1.iew.iewUnblockCycles     14236531                       # Number of cycles IEW is unblocking
system.switch_cpus_1.iew.iewDispatchedInsts    213936363                       # Number of instructions dispatched to IQ
system.switch_cpus_1.iew.iewDispSquashedInsts          562                       # Number of squashed instructions skipped by dispatch
system.switch_cpus_1.iew.iewDispLoadInsts     44137691                       # Number of dispatched load instructions
system.switch_cpus_1.iew.iewDispStoreInsts     13325430                       # Number of dispatched store instructions
system.switch_cpus_1.iew.iewDispNonSpecInsts            0                       # Number of dispatched non-speculative instructions
system.switch_cpus_1.iew.iewIQFullEvents       895119                       # Number of times the IQ has become full, causing a stall
system.switch_cpus_1.iew.iewLSQFullEvents     13101571                       # Number of times the LSQ has become full, causing a stall
system.switch_cpus_1.iew.memOrderViolationEvents         1772                       # Number of memory order violations
system.switch_cpus_1.iew.predictedTakenIncorrect          547                       # Number of branches that were predicted taken incorrectly
system.switch_cpus_1.iew.predictedNotTakenIncorrect        15425                       # Number of branches that were predicted not taken incorrectly
system.switch_cpus_1.iew.branchMispredicts        15972                       # Number of branch mispredicts detected at execute
system.switch_cpus_1.iew.iewExecutedInsts    208882855                       # Number of executed instructions
system.switch_cpus_1.iew.iewExecLoadInsts     44106578                       # Number of load instructions executed
system.switch_cpus_1.iew.iewExecSquashedInsts       206601                       # Number of squashed instructions skipped in execute
system.switch_cpus_1.iew.exec_swp                   0                       # number of swp insts executed
system.switch_cpus_1.iew.exec_nop              179332                       # number of nop insts executed
system.switch_cpus_1.iew.exec_refs           57060324                       # number of memory reference insts executed
system.switch_cpus_1.iew.exec_branches        1499206                       # Number of branches executed
system.switch_cpus_1.iew.exec_stores         12953746                       # Number of stores executed
system.switch_cpus_1.iew.exec_rate           0.974315                       # Inst execution rate
system.switch_cpus_1.iew.wb_sent            208445435                       # cumulative count of insts sent to commit
system.switch_cpus_1.iew.wb_count           207992224                       # cumulative count of insts written-back
system.switch_cpus_1.iew.wb_producers       138521087                       # num instructions producing a value
system.switch_cpus_1.iew.wb_consumers       165944146                       # num instructions consuming a value
system.switch_cpus_1.iew.wb_rate             0.970160                       # insts written-back per cycle
system.switch_cpus_1.iew.wb_fanout           0.834745                       # average fanout of values written-back
system.switch_cpus_1.commit.commitSquashedInsts     11082187                       # The number of squashed insts skipped by commit
system.switch_cpus_1.commit.branchMispredicts        15477                       # The number of times a branch was mispredicted
system.switch_cpus_1.commit.committed_per_cycle::samples    212951732                       # Number of insts commited each cycle
system.switch_cpus_1.commit.committed_per_cycle::mean     0.939994                       # Number of insts commited each cycle
system.switch_cpus_1.commit.committed_per_cycle::stdev     2.387728                       # Number of insts commited each cycle
system.switch_cpus_1.commit.committed_per_cycle::underflows            0      0.00%      0.00% # Number of insts commited each cycle
system.switch_cpus_1.commit.committed_per_cycle::0    178058176     83.61%     83.61% # Number of insts commited each cycle
system.switch_cpus_1.commit.committed_per_cycle::1      3950170      1.85%     85.47% # Number of insts commited each cycle
system.switch_cpus_1.commit.committed_per_cycle::2      2986787      1.40%     86.87% # Number of insts commited each cycle
system.switch_cpus_1.commit.committed_per_cycle::3      2719013      1.28%     88.15% # Number of insts commited each cycle
system.switch_cpus_1.commit.committed_per_cycle::4      2417961      1.14%     89.28% # Number of insts commited each cycle
system.switch_cpus_1.commit.committed_per_cycle::5      2004284      0.94%     90.23% # Number of insts commited each cycle
system.switch_cpus_1.commit.committed_per_cycle::6      1378388      0.65%     90.87% # Number of insts commited each cycle
system.switch_cpus_1.commit.committed_per_cycle::7      1366543      0.64%     91.51% # Number of insts commited each cycle
system.switch_cpus_1.commit.committed_per_cycle::8     18070410      8.49%    100.00% # Number of insts commited each cycle
system.switch_cpus_1.commit.committed_per_cycle::overflows            0      0.00%    100.00% # Number of insts commited each cycle
system.switch_cpus_1.commit.committed_per_cycle::min_value            0                       # Number of insts commited each cycle
system.switch_cpus_1.commit.committed_per_cycle::max_value            8                       # Number of insts commited each cycle
system.switch_cpus_1.commit.committed_per_cycle::total    212951732                       # Number of insts commited each cycle
system.switch_cpus_1.commit.committedInsts    200173456                       # Number of instructions committed
system.switch_cpus_1.commit.committedOps    200173456                       # Number of ops (including micro ops) committed
system.switch_cpus_1.commit.swp_count               0                       # Number of s/w prefetches committed
system.switch_cpus_1.commit.refs             53329056                       # Number of memory references committed
system.switch_cpus_1.commit.loads            40800023                       # Number of loads committed
system.switch_cpus_1.commit.membars                 0                       # Number of memory barriers committed
system.switch_cpus_1.commit.branches          1403066                       # Number of branches committed
system.switch_cpus_1.commit.fp_insts        122294760                       # Number of committed floating point instructions.
system.switch_cpus_1.commit.int_insts       127004953                       # Number of committed integer instructions.
system.switch_cpus_1.commit.function_calls            7                       # Number of function calls committed.
system.switch_cpus_1.commit.op_class_0::No_OpClass       173452      0.09%      0.09% # Class of committed instruction
system.switch_cpus_1.commit.op_class_0::IntAlu     61200061     30.57%     30.66% # Class of committed instruction
system.switch_cpus_1.commit.op_class_0::IntMult            0      0.00%     30.66% # Class of committed instruction
system.switch_cpus_1.commit.op_class_0::IntDiv            0      0.00%     30.66% # Class of committed instruction
system.switch_cpus_1.commit.op_class_0::FloatAdd     35376177     17.67%     48.33% # Class of committed instruction
system.switch_cpus_1.commit.op_class_0::FloatCmp      8364224      4.18%     52.51% # Class of committed instruction
system.switch_cpus_1.commit.op_class_0::FloatCvt     12546336      6.27%     58.78% # Class of committed instruction
system.switch_cpus_1.commit.op_class_0::FloatMult     26817554     13.40%     72.18% # Class of committed instruction
system.switch_cpus_1.commit.op_class_0::FloatMultAcc            0      0.00%     72.18% # Class of committed instruction
system.switch_cpus_1.commit.op_class_0::FloatDiv      2366596      1.18%     73.36% # Class of committed instruction
system.switch_cpus_1.commit.op_class_0::FloatMisc            0      0.00%     73.36% # Class of committed instruction
system.switch_cpus_1.commit.op_class_0::FloatSqrt            0      0.00%     73.36% # Class of committed instruction
system.switch_cpus_1.commit.op_class_0::SimdAdd            0      0.00%     73.36% # Class of committed instruction
system.switch_cpus_1.commit.op_class_0::SimdAddAcc            0      0.00%     73.36% # Class of committed instruction
system.switch_cpus_1.commit.op_class_0::SimdAlu            0      0.00%     73.36% # Class of committed instruction
system.switch_cpus_1.commit.op_class_0::SimdCmp            0      0.00%     73.36% # Class of committed instruction
system.switch_cpus_1.commit.op_class_0::SimdCvt            0      0.00%     73.36% # Class of committed instruction
system.switch_cpus_1.commit.op_class_0::SimdMisc            0      0.00%     73.36% # Class of committed instruction
system.switch_cpus_1.commit.op_class_0::SimdMult            0      0.00%     73.36% # Class of committed instruction
system.switch_cpus_1.commit.op_class_0::SimdMultAcc            0      0.00%     73.36% # Class of committed instruction
system.switch_cpus_1.commit.op_class_0::SimdShift            0      0.00%     73.36% # Class of committed instruction
system.switch_cpus_1.commit.op_class_0::SimdShiftAcc            0      0.00%     73.36% # Class of committed instruction
system.switch_cpus_1.commit.op_class_0::SimdSqrt            0      0.00%     73.36% # Class of committed instruction
system.switch_cpus_1.commit.op_class_0::SimdFloatAdd            0      0.00%     73.36% # Class of committed instruction
system.switch_cpus_1.commit.op_class_0::SimdFloatAlu            0      0.00%     73.36% # Class of committed instruction
system.switch_cpus_1.commit.op_class_0::SimdFloatCmp            0      0.00%     73.36% # Class of committed instruction
system.switch_cpus_1.commit.op_class_0::SimdFloatCvt            0      0.00%     73.36% # Class of committed instruction
system.switch_cpus_1.commit.op_class_0::SimdFloatDiv            0      0.00%     73.36% # Class of committed instruction
system.switch_cpus_1.commit.op_class_0::SimdFloatMisc            0      0.00%     73.36% # Class of committed instruction
system.switch_cpus_1.commit.op_class_0::SimdFloatMult            0      0.00%     73.36% # Class of committed instruction
system.switch_cpus_1.commit.op_class_0::SimdFloatMultAcc            0      0.00%     73.36% # Class of committed instruction
system.switch_cpus_1.commit.op_class_0::SimdFloatSqrt            0      0.00%     73.36% # Class of committed instruction
system.switch_cpus_1.commit.op_class_0::MemRead     12460377      6.22%     79.58% # Class of committed instruction
system.switch_cpus_1.commit.op_class_0::MemWrite      4044806      2.02%     81.60% # Class of committed instruction
system.switch_cpus_1.commit.op_class_0::FloatMemRead     28339646     14.16%     95.76% # Class of committed instruction
system.switch_cpus_1.commit.op_class_0::FloatMemWrite      8484227      4.24%    100.00% # Class of committed instruction
system.switch_cpus_1.commit.op_class_0::IprAccess            0      0.00%    100.00% # Class of committed instruction
system.switch_cpus_1.commit.op_class_0::InstPrefetch            0      0.00%    100.00% # Class of committed instruction
system.switch_cpus_1.commit.op_class_0::total    200173456                       # Class of committed instruction
system.switch_cpus_1.commit.bw_lim_events     18070410                       # number cycles where commit BW limit reached
system.switch_cpus_1.rob.rob_reads          404531855                       # The number of ROB reads
system.switch_cpus_1.rob.rob_writes         423947072                       # The number of ROB writes
system.switch_cpus_1.timesIdled                    13                       # Number of times that the entire CPU went into an idle state and unscheduled itself
system.switch_cpus_1.idleCycles                  2129                       # Total number of cycles that the CPU has spent unscheduled due to idling
system.switch_cpus_1.committedInsts         200000004                       # Number of Instructions Simulated
system.switch_cpus_1.committedOps           200000004                       # Number of Ops (including micro ops) Simulated
system.switch_cpus_1.cpi                     1.071948                       # CPI: Cycles Per Instruction
system.switch_cpus_1.cpi_total               1.071948                       # CPI: Total CPI of All Threads
system.switch_cpus_1.ipc                     0.932881                       # IPC: Instructions Per Cycle
system.switch_cpus_1.ipc_total               0.932881                       # IPC: Total IPC of All Threads
system.switch_cpus_1.int_regfile_reads      175649481                       # number of integer regfile reads
system.switch_cpus_1.int_regfile_writes      84674402                       # number of integer regfile writes
system.switch_cpus_1.fp_regfile_reads       170480226                       # number of floating regfile reads
system.switch_cpus_1.fp_regfile_writes      108911606                       # number of floating regfile writes
system.tol3bus.snoop_filter.tot_requests      9621299                       # Total number of requests made to the snoop filter.
system.tol3bus.snoop_filter.hit_single_requests      4808469                       # Number of requests hitting in the snoop filter with a single holder of the requested data.
system.tol3bus.snoop_filter.hit_multi_requests            0                       # Number of requests hitting in the snoop filter with multiple (>1) holders of the requested data.
system.tol3bus.snoop_filter.tot_snoops         147513                       # Total number of snoops made to the snoop filter.
system.tol3bus.snoop_filter.hit_single_snoops       147513                       # Number of snoops hitting in the snoop filter with a single holder of the requested data.
system.tol3bus.snoop_filter.hit_multi_snoops            0                       # Number of snoops hitting in the snoop filter with multiple (>1) holders of the requested data.
system.tol3bus.pwrStateResidencyTicks::UNDEFINED 118633890836187                       # Cumulative time (in ticks) in various power states
system.tol3bus.trans_dist::ReadResp           4255838                       # Transaction distribution
system.tol3bus.trans_dist::WritebackDirty      3571664                       # Transaction distribution
system.tol3bus.trans_dist::CleanEvict         5609301                       # Transaction distribution
system.tol3bus.trans_dist::UpgradeReq               2                       # Transaction distribution
system.tol3bus.trans_dist::UpgradeResp              2                       # Transaction distribution
system.tol3bus.trans_dist::ReadExReq           556992                       # Transaction distribution
system.tol3bus.trans_dist::ReadExResp          556992                       # Transaction distribution
system.tol3bus.trans_dist::ReadSharedReq      4255838                       # Transaction distribution
system.tol3bus.pkt_count_system.cpu.l2.mem_side::system.l3.cpu_side     14434131                       # Packet count per connected master and slave (bytes)
system.tol3bus.pkt_size_system.cpu.l2.mem_side::system.l3.cpu_side    424711872                       # Cumulative packet size per connected master and slave (bytes)
system.tol3bus.snoops                         4372498                       # Total snoops (count)
system.tol3bus.snoopTraffic                 111895744                       # Total snoop traffic (bytes)
system.tol3bus.snoop_fanout::samples          9185330                       # Request fanout histogram
system.tol3bus.snoop_fanout::mean            0.016060                       # Request fanout histogram
system.tol3bus.snoop_fanout::stdev           0.125705                       # Request fanout histogram
system.tol3bus.snoop_fanout::underflows             0      0.00%      0.00% # Request fanout histogram
system.tol3bus.snoop_fanout::0                9037817     98.39%     98.39% # Request fanout histogram
system.tol3bus.snoop_fanout::1                 147513      1.61%    100.00% # Request fanout histogram
system.tol3bus.snoop_fanout::overflows              0      0.00%    100.00% # Request fanout histogram
system.tol3bus.snoop_fanout::min_value              0                       # Request fanout histogram
system.tol3bus.snoop_fanout::max_value              1                       # Request fanout histogram
system.tol3bus.snoop_fanout::total            9185330                       # Request fanout histogram
system.tol3bus.reqLayer0.occupancy         3811049136                       # Layer occupancy (ticks)
system.tol3bus.reqLayer0.utilization              0.3                       # Layer utilization (%)
system.tol3bus.respLayer0.occupancy        3205345446                       # Layer occupancy (ticks)
system.tol3bus.respLayer0.utilization             0.2                       # Layer utilization (%)

---------- End Simulation Statistics   ----------
