
---------- Begin Simulation Statistics ----------
sim_seconds                                  3.666904                       # Number of seconds simulated
sim_ticks                                3666904449309                       # Number of ticks simulated
final_tick                               130619900974041                       # Number of ticks from beginning of simulation (restored from checkpoints and never reset)
sim_freq                                 1000000000000                       # Frequency of simulated ticks
host_inst_rate                                 228165                       # Simulator instruction rate (inst/s)
host_op_rate                                   228165                       # Simulator op (including micro ops) rate (op/s)
host_tick_rate                              697216563                       # Simulator tick rate (ticks/s)
host_mem_usage                                2436480                       # Number of bytes of host memory used
host_seconds                                  5259.35                       # Real time elapsed on the host
sim_insts                                  1200000003                       # Number of instructions simulated
sim_ops                                    1200000003                       # Number of ops (including micro ops) simulated
system.voltage_domain.voltage                       1                       # Voltage in Volts
system.clk_domain.clock                          1000                       # Clock period in ticks
system.mem_ctrls0.pwrStateResidencyTicks::UNDEFINED 130619900974041                       # Cumulative time (in ticks) in various power states
system.mem_ctrls0.bytes_read::cpu.inst            128                       # Number of bytes read from this memory
system.mem_ctrls0.bytes_read::switch_cpus.inst        51648                       # Number of bytes read from this memory
system.mem_ctrls0.bytes_read::switch_cpus.data    391424832                       # Number of bytes read from this memory
system.mem_ctrls0.bytes_read::switch_cpus_1.inst        20608                       # Number of bytes read from this memory
system.mem_ctrls0.bytes_read::switch_cpus_1.data     88588992                       # Number of bytes read from this memory
system.mem_ctrls0.bytes_read::total         480086208                       # Number of bytes read from this memory
system.mem_ctrls0.bytes_inst_read::cpu.inst          128                       # Number of instructions bytes read from this memory
system.mem_ctrls0.bytes_inst_read::switch_cpus.inst        51648                       # Number of instructions bytes read from this memory
system.mem_ctrls0.bytes_inst_read::switch_cpus_1.inst        20608                       # Number of instructions bytes read from this memory
system.mem_ctrls0.bytes_inst_read::total        72384                       # Number of instructions bytes read from this memory
system.mem_ctrls0.bytes_written::writebacks    202077504                       # Number of bytes written to this memory
system.mem_ctrls0.bytes_written::total      202077504                       # Number of bytes written to this memory
system.mem_ctrls0.num_reads::cpu.inst               2                       # Number of read requests responded to by this memory
system.mem_ctrls0.num_reads::switch_cpus.inst          807                       # Number of read requests responded to by this memory
system.mem_ctrls0.num_reads::switch_cpus.data      6116013                       # Number of read requests responded to by this memory
system.mem_ctrls0.num_reads::switch_cpus_1.inst          322                       # Number of read requests responded to by this memory
system.mem_ctrls0.num_reads::switch_cpus_1.data      1384203                       # Number of read requests responded to by this memory
system.mem_ctrls0.num_reads::total            7501347                       # Number of read requests responded to by this memory
system.mem_ctrls0.num_writes::writebacks      3157461                       # Number of write requests responded to by this memory
system.mem_ctrls0.num_writes::total           3157461                       # Number of write requests responded to by this memory
system.mem_ctrls0.bw_read::cpu.inst                35                       # Total read bandwidth from this memory (bytes/s)
system.mem_ctrls0.bw_read::switch_cpus.inst        14085                       # Total read bandwidth from this memory (bytes/s)
system.mem_ctrls0.bw_read::switch_cpus.data    106745304                       # Total read bandwidth from this memory (bytes/s)
system.mem_ctrls0.bw_read::switch_cpus_1.inst         5620                       # Total read bandwidth from this memory (bytes/s)
system.mem_ctrls0.bw_read::switch_cpus_1.data     24159067                       # Total read bandwidth from this memory (bytes/s)
system.mem_ctrls0.bw_read::total            130924112                       # Total read bandwidth from this memory (bytes/s)
system.mem_ctrls0.bw_inst_read::cpu.inst           35                       # Instruction read bandwidth from this memory (bytes/s)
system.mem_ctrls0.bw_inst_read::switch_cpus.inst        14085                       # Instruction read bandwidth from this memory (bytes/s)
system.mem_ctrls0.bw_inst_read::switch_cpus_1.inst         5620                       # Instruction read bandwidth from this memory (bytes/s)
system.mem_ctrls0.bw_inst_read::total           19740                       # Instruction read bandwidth from this memory (bytes/s)
system.mem_ctrls0.bw_write::writebacks       55108473                       # Write bandwidth from this memory (bytes/s)
system.mem_ctrls0.bw_write::total            55108473                       # Write bandwidth from this memory (bytes/s)
system.mem_ctrls0.bw_total::writebacks       55108473                       # Total bandwidth to/from this memory (bytes/s)
system.mem_ctrls0.bw_total::cpu.inst               35                       # Total bandwidth to/from this memory (bytes/s)
system.mem_ctrls0.bw_total::switch_cpus.inst        14085                       # Total bandwidth to/from this memory (bytes/s)
system.mem_ctrls0.bw_total::switch_cpus.data    106745304                       # Total bandwidth to/from this memory (bytes/s)
system.mem_ctrls0.bw_total::switch_cpus_1.inst         5620                       # Total bandwidth to/from this memory (bytes/s)
system.mem_ctrls0.bw_total::switch_cpus_1.data     24159067                       # Total bandwidth to/from this memory (bytes/s)
system.mem_ctrls0.bw_total::total           186032585                       # Total bandwidth to/from this memory (bytes/s)
system.mem_ctrls0.readReqs                    7501347                       # Number of read requests accepted
system.mem_ctrls0.writeReqs                   3157461                       # Number of write requests accepted
system.mem_ctrls0.readBursts                  7501347                       # Number of DRAM read bursts, including those serviced by the write queue
system.mem_ctrls0.writeBursts                 3157461                       # Number of DRAM write bursts, including those merged in the write queue
system.mem_ctrls0.bytesReadDRAM             479792640                       # Total number of bytes read from DRAM
system.mem_ctrls0.bytesReadWrQ                 293568                       # Total number of bytes read from write queue
system.mem_ctrls0.bytesWritten              202075648                       # Total number of bytes written to DRAM
system.mem_ctrls0.bytesReadSys              480086208                       # Total read bytes from the system interface side
system.mem_ctrls0.bytesWrittenSys           202077504                       # Total written bytes from the system interface side
system.mem_ctrls0.servicedByWrQ                  4587                       # Number of DRAM read bursts serviced by the write queue
system.mem_ctrls0.mergedWrBursts                    0                       # Number of DRAM write bursts merged with an existing one
system.mem_ctrls0.neitherReadNorWriteReqs            0                       # Number of requests that are neither read nor write
system.mem_ctrls0.perBankRdBursts::0           463014                       # Per bank write bursts
system.mem_ctrls0.perBankRdBursts::1           475316                       # Per bank write bursts
system.mem_ctrls0.perBankRdBursts::2           473447                       # Per bank write bursts
system.mem_ctrls0.perBankRdBursts::3           453701                       # Per bank write bursts
system.mem_ctrls0.perBankRdBursts::4           452685                       # Per bank write bursts
system.mem_ctrls0.perBankRdBursts::5           475054                       # Per bank write bursts
system.mem_ctrls0.perBankRdBursts::6           484057                       # Per bank write bursts
system.mem_ctrls0.perBankRdBursts::7           482521                       # Per bank write bursts
system.mem_ctrls0.perBankRdBursts::8           492927                       # Per bank write bursts
system.mem_ctrls0.perBankRdBursts::9           471437                       # Per bank write bursts
system.mem_ctrls0.perBankRdBursts::10          456200                       # Per bank write bursts
system.mem_ctrls0.perBankRdBursts::11          453337                       # Per bank write bursts
system.mem_ctrls0.perBankRdBursts::12          450323                       # Per bank write bursts
system.mem_ctrls0.perBankRdBursts::13          471931                       # Per bank write bursts
system.mem_ctrls0.perBankRdBursts::14          474400                       # Per bank write bursts
system.mem_ctrls0.perBankRdBursts::15          466410                       # Per bank write bursts
system.mem_ctrls0.perBankWrBursts::0           196513                       # Per bank write bursts
system.mem_ctrls0.perBankWrBursts::1           196450                       # Per bank write bursts
system.mem_ctrls0.perBankWrBursts::2           200520                       # Per bank write bursts
system.mem_ctrls0.perBankWrBursts::3           187601                       # Per bank write bursts
system.mem_ctrls0.perBankWrBursts::4           189825                       # Per bank write bursts
system.mem_ctrls0.perBankWrBursts::5           200080                       # Per bank write bursts
system.mem_ctrls0.perBankWrBursts::6           207434                       # Per bank write bursts
system.mem_ctrls0.perBankWrBursts::7           205740                       # Per bank write bursts
system.mem_ctrls0.perBankWrBursts::8           207563                       # Per bank write bursts
system.mem_ctrls0.perBankWrBursts::9           196300                       # Per bank write bursts
system.mem_ctrls0.perBankWrBursts::10          194404                       # Per bank write bursts
system.mem_ctrls0.perBankWrBursts::11          195211                       # Per bank write bursts
system.mem_ctrls0.perBankWrBursts::12          186710                       # Per bank write bursts
system.mem_ctrls0.perBankWrBursts::13          196897                       # Per bank write bursts
system.mem_ctrls0.perBankWrBursts::14          201727                       # Per bank write bursts
system.mem_ctrls0.perBankWrBursts::15          194457                       # Per bank write bursts
system.mem_ctrls0.numRdRetry                        0                       # Number of times read queue was full causing retry
system.mem_ctrls0.numWrRetry                        0                       # Number of times write queue was full causing retry
system.mem_ctrls0.totGap                 3666904270155                       # Total gap between requests
system.mem_ctrls0.readPktSize::0                    0                       # Read request sizes (log2)
system.mem_ctrls0.readPktSize::1                    0                       # Read request sizes (log2)
system.mem_ctrls0.readPktSize::2                    0                       # Read request sizes (log2)
system.mem_ctrls0.readPktSize::3                    0                       # Read request sizes (log2)
system.mem_ctrls0.readPktSize::4                    0                       # Read request sizes (log2)
system.mem_ctrls0.readPktSize::5                    0                       # Read request sizes (log2)
system.mem_ctrls0.readPktSize::6              7501347                       # Read request sizes (log2)
system.mem_ctrls0.writePktSize::0                   0                       # Write request sizes (log2)
system.mem_ctrls0.writePktSize::1                   0                       # Write request sizes (log2)
system.mem_ctrls0.writePktSize::2                   0                       # Write request sizes (log2)
system.mem_ctrls0.writePktSize::3                   0                       # Write request sizes (log2)
system.mem_ctrls0.writePktSize::4                   0                       # Write request sizes (log2)
system.mem_ctrls0.writePktSize::5                   0                       # Write request sizes (log2)
system.mem_ctrls0.writePktSize::6             3157461                       # Write request sizes (log2)
system.mem_ctrls0.rdQLenPdf::0                7226811                       # What read queue length does an incoming req see
system.mem_ctrls0.rdQLenPdf::1                 241952                       # What read queue length does an incoming req see
system.mem_ctrls0.rdQLenPdf::2                  26384                       # What read queue length does an incoming req see
system.mem_ctrls0.rdQLenPdf::3                   1613                       # What read queue length does an incoming req see
system.mem_ctrls0.rdQLenPdf::4                      0                       # What read queue length does an incoming req see
system.mem_ctrls0.rdQLenPdf::5                      0                       # What read queue length does an incoming req see
system.mem_ctrls0.rdQLenPdf::6                      0                       # What read queue length does an incoming req see
system.mem_ctrls0.rdQLenPdf::7                      0                       # What read queue length does an incoming req see
system.mem_ctrls0.rdQLenPdf::8                      0                       # What read queue length does an incoming req see
system.mem_ctrls0.rdQLenPdf::9                      0                       # What read queue length does an incoming req see
system.mem_ctrls0.rdQLenPdf::10                     0                       # What read queue length does an incoming req see
system.mem_ctrls0.rdQLenPdf::11                     0                       # What read queue length does an incoming req see
system.mem_ctrls0.rdQLenPdf::12                     0                       # What read queue length does an incoming req see
system.mem_ctrls0.rdQLenPdf::13                     0                       # What read queue length does an incoming req see
system.mem_ctrls0.rdQLenPdf::14                     0                       # What read queue length does an incoming req see
system.mem_ctrls0.rdQLenPdf::15                     0                       # What read queue length does an incoming req see
system.mem_ctrls0.rdQLenPdf::16                     0                       # What read queue length does an incoming req see
system.mem_ctrls0.rdQLenPdf::17                     0                       # What read queue length does an incoming req see
system.mem_ctrls0.rdQLenPdf::18                     0                       # What read queue length does an incoming req see
system.mem_ctrls0.rdQLenPdf::19                     0                       # What read queue length does an incoming req see
system.mem_ctrls0.rdQLenPdf::20                     0                       # What read queue length does an incoming req see
system.mem_ctrls0.rdQLenPdf::21                     0                       # What read queue length does an incoming req see
system.mem_ctrls0.rdQLenPdf::22                     0                       # What read queue length does an incoming req see
system.mem_ctrls0.rdQLenPdf::23                     0                       # What read queue length does an incoming req see
system.mem_ctrls0.rdQLenPdf::24                     0                       # What read queue length does an incoming req see
system.mem_ctrls0.rdQLenPdf::25                     0                       # What read queue length does an incoming req see
system.mem_ctrls0.rdQLenPdf::26                     0                       # What read queue length does an incoming req see
system.mem_ctrls0.rdQLenPdf::27                     0                       # What read queue length does an incoming req see
system.mem_ctrls0.rdQLenPdf::28                     0                       # What read queue length does an incoming req see
system.mem_ctrls0.rdQLenPdf::29                     0                       # What read queue length does an incoming req see
system.mem_ctrls0.rdQLenPdf::30                     0                       # What read queue length does an incoming req see
system.mem_ctrls0.rdQLenPdf::31                     0                       # What read queue length does an incoming req see
system.mem_ctrls0.wrQLenPdf::0                      2                       # What write queue length does an incoming req see
system.mem_ctrls0.wrQLenPdf::1                      2                       # What write queue length does an incoming req see
system.mem_ctrls0.wrQLenPdf::2                      2                       # What write queue length does an incoming req see
system.mem_ctrls0.wrQLenPdf::3                      2                       # What write queue length does an incoming req see
system.mem_ctrls0.wrQLenPdf::4                      2                       # What write queue length does an incoming req see
system.mem_ctrls0.wrQLenPdf::5                      2                       # What write queue length does an incoming req see
system.mem_ctrls0.wrQLenPdf::6                      2                       # What write queue length does an incoming req see
system.mem_ctrls0.wrQLenPdf::7                      2                       # What write queue length does an incoming req see
system.mem_ctrls0.wrQLenPdf::8                      2                       # What write queue length does an incoming req see
system.mem_ctrls0.wrQLenPdf::9                      2                       # What write queue length does an incoming req see
system.mem_ctrls0.wrQLenPdf::10                     2                       # What write queue length does an incoming req see
system.mem_ctrls0.wrQLenPdf::11                     2                       # What write queue length does an incoming req see
system.mem_ctrls0.wrQLenPdf::12                     2                       # What write queue length does an incoming req see
system.mem_ctrls0.wrQLenPdf::13                     2                       # What write queue length does an incoming req see
system.mem_ctrls0.wrQLenPdf::14                     2                       # What write queue length does an incoming req see
system.mem_ctrls0.wrQLenPdf::15                155543                       # What write queue length does an incoming req see
system.mem_ctrls0.wrQLenPdf::16                160371                       # What write queue length does an incoming req see
system.mem_ctrls0.wrQLenPdf::17                176526                       # What write queue length does an incoming req see
system.mem_ctrls0.wrQLenPdf::18                177356                       # What write queue length does an incoming req see
system.mem_ctrls0.wrQLenPdf::19                177402                       # What write queue length does an incoming req see
system.mem_ctrls0.wrQLenPdf::20                177452                       # What write queue length does an incoming req see
system.mem_ctrls0.wrQLenPdf::21                177525                       # What write queue length does an incoming req see
system.mem_ctrls0.wrQLenPdf::22                177729                       # What write queue length does an incoming req see
system.mem_ctrls0.wrQLenPdf::23                179576                       # What write queue length does an incoming req see
system.mem_ctrls0.wrQLenPdf::24                177662                       # What write queue length does an incoming req see
system.mem_ctrls0.wrQLenPdf::25                177444                       # What write queue length does an incoming req see
system.mem_ctrls0.wrQLenPdf::26                177422                       # What write queue length does an incoming req see
system.mem_ctrls0.wrQLenPdf::27                177432                       # What write queue length does an incoming req see
system.mem_ctrls0.wrQLenPdf::28                177433                       # What write queue length does an incoming req see
system.mem_ctrls0.wrQLenPdf::29                177648                       # What write queue length does an incoming req see
system.mem_ctrls0.wrQLenPdf::30                178534                       # What write queue length does an incoming req see
system.mem_ctrls0.wrQLenPdf::31                177177                       # What write queue length does an incoming req see
system.mem_ctrls0.wrQLenPdf::32                177157                       # What write queue length does an incoming req see
system.mem_ctrls0.wrQLenPdf::33                    40                       # What write queue length does an incoming req see
system.mem_ctrls0.wrQLenPdf::34                     2                       # What write queue length does an incoming req see
system.mem_ctrls0.wrQLenPdf::35                     0                       # What write queue length does an incoming req see
system.mem_ctrls0.wrQLenPdf::36                     0                       # What write queue length does an incoming req see
system.mem_ctrls0.wrQLenPdf::37                     0                       # What write queue length does an incoming req see
system.mem_ctrls0.wrQLenPdf::38                     0                       # What write queue length does an incoming req see
system.mem_ctrls0.wrQLenPdf::39                     0                       # What write queue length does an incoming req see
system.mem_ctrls0.wrQLenPdf::40                     0                       # What write queue length does an incoming req see
system.mem_ctrls0.wrQLenPdf::41                     0                       # What write queue length does an incoming req see
system.mem_ctrls0.wrQLenPdf::42                     0                       # What write queue length does an incoming req see
system.mem_ctrls0.wrQLenPdf::43                     0                       # What write queue length does an incoming req see
system.mem_ctrls0.wrQLenPdf::44                     0                       # What write queue length does an incoming req see
system.mem_ctrls0.wrQLenPdf::45                     0                       # What write queue length does an incoming req see
system.mem_ctrls0.wrQLenPdf::46                     0                       # What write queue length does an incoming req see
system.mem_ctrls0.wrQLenPdf::47                     0                       # What write queue length does an incoming req see
system.mem_ctrls0.wrQLenPdf::48                     0                       # What write queue length does an incoming req see
system.mem_ctrls0.wrQLenPdf::49                     0                       # What write queue length does an incoming req see
system.mem_ctrls0.wrQLenPdf::50                     0                       # What write queue length does an incoming req see
system.mem_ctrls0.wrQLenPdf::51                     0                       # What write queue length does an incoming req see
system.mem_ctrls0.wrQLenPdf::52                     0                       # What write queue length does an incoming req see
system.mem_ctrls0.wrQLenPdf::53                     0                       # What write queue length does an incoming req see
system.mem_ctrls0.wrQLenPdf::54                     0                       # What write queue length does an incoming req see
system.mem_ctrls0.wrQLenPdf::55                     0                       # What write queue length does an incoming req see
system.mem_ctrls0.wrQLenPdf::56                     0                       # What write queue length does an incoming req see
system.mem_ctrls0.wrQLenPdf::57                     0                       # What write queue length does an incoming req see
system.mem_ctrls0.wrQLenPdf::58                     0                       # What write queue length does an incoming req see
system.mem_ctrls0.wrQLenPdf::59                     0                       # What write queue length does an incoming req see
system.mem_ctrls0.wrQLenPdf::60                     0                       # What write queue length does an incoming req see
system.mem_ctrls0.wrQLenPdf::61                     0                       # What write queue length does an incoming req see
system.mem_ctrls0.wrQLenPdf::62                     0                       # What write queue length does an incoming req see
system.mem_ctrls0.wrQLenPdf::63                     0                       # What write queue length does an incoming req see
system.mem_ctrls0.bytesPerActivate::samples      6923247                       # Bytes accessed per row activation
system.mem_ctrls0.bytesPerActivate::mean    98.489630                       # Bytes accessed per row activation
system.mem_ctrls0.bytesPerActivate::gmean    82.420338                       # Bytes accessed per row activation
system.mem_ctrls0.bytesPerActivate::stdev    86.389466                       # Bytes accessed per row activation
system.mem_ctrls0.bytesPerActivate::0-127      5265458     76.05%     76.05% # Bytes accessed per row activation
system.mem_ctrls0.bytesPerActivate::128-255      1199492     17.33%     93.38% # Bytes accessed per row activation
system.mem_ctrls0.bytesPerActivate::256-383       262892      3.80%     97.18% # Bytes accessed per row activation
system.mem_ctrls0.bytesPerActivate::384-511       116619      1.68%     98.86% # Bytes accessed per row activation
system.mem_ctrls0.bytesPerActivate::512-639        51671      0.75%     99.61% # Bytes accessed per row activation
system.mem_ctrls0.bytesPerActivate::640-767        17132      0.25%     99.86% # Bytes accessed per row activation
system.mem_ctrls0.bytesPerActivate::768-895         6006      0.09%     99.94% # Bytes accessed per row activation
system.mem_ctrls0.bytesPerActivate::896-1023         2326      0.03%     99.98% # Bytes accessed per row activation
system.mem_ctrls0.bytesPerActivate::1024-1151         1651      0.02%    100.00% # Bytes accessed per row activation
system.mem_ctrls0.bytesPerActivate::total      6923247                       # Bytes accessed per row activation
system.mem_ctrls0.rdPerTurnAround::samples       177156                       # Reads before turning the bus around for writes
system.mem_ctrls0.rdPerTurnAround::mean     42.317054                       # Reads before turning the bus around for writes
system.mem_ctrls0.rdPerTurnAround::gmean    40.611723                       # Reads before turning the bus around for writes
system.mem_ctrls0.rdPerTurnAround::stdev    56.966010                       # Reads before turning the bus around for writes
system.mem_ctrls0.rdPerTurnAround::0-1023       177155    100.00%    100.00% # Reads before turning the bus around for writes
system.mem_ctrls0.rdPerTurnAround::22528-23551            1      0.00%    100.00% # Reads before turning the bus around for writes
system.mem_ctrls0.rdPerTurnAround::total       177156                       # Reads before turning the bus around for writes
system.mem_ctrls0.wrPerTurnAround::samples       177156                       # Writes before turning the bus around for reads
system.mem_ctrls0.wrPerTurnAround::mean     17.822891                       # Writes before turning the bus around for reads
system.mem_ctrls0.wrPerTurnAround::gmean    17.810710                       # Writes before turning the bus around for reads
system.mem_ctrls0.wrPerTurnAround::stdev     0.642888                       # Writes before turning the bus around for reads
system.mem_ctrls0.wrPerTurnAround::15               1      0.00%      0.00% # Writes before turning the bus around for reads
system.mem_ctrls0.wrPerTurnAround::16           16814      9.49%      9.49% # Writes before turning the bus around for reads
system.mem_ctrls0.wrPerTurnAround::17            4274      2.41%     11.90% # Writes before turning the bus around for reads
system.mem_ctrls0.wrPerTurnAround::18          149875     84.60%     96.50% # Writes before turning the bus around for reads
system.mem_ctrls0.wrPerTurnAround::19            5872      3.31%     99.82% # Writes before turning the bus around for reads
system.mem_ctrls0.wrPerTurnAround::20             303      0.17%     99.99% # Writes before turning the bus around for reads
system.mem_ctrls0.wrPerTurnAround::21              17      0.01%    100.00% # Writes before turning the bus around for reads
system.mem_ctrls0.wrPerTurnAround::total       177156                       # Writes before turning the bus around for reads
system.mem_ctrls0.totQLat                160513393090                       # Total ticks spent queuing
system.mem_ctrls0.totMemAccLat           301077643090                       # Total ticks spent from burst creation until serviced by the DRAM
system.mem_ctrls0.totBusLat               37483800000                       # Total ticks spent in databus transfers
system.mem_ctrls0.avgQLat                    21411.04                       # Average queueing delay per DRAM burst
system.mem_ctrls0.avgBusLat                   5000.00                       # Average bus latency per DRAM burst
system.mem_ctrls0.avgMemAccLat               40161.04                       # Average memory access latency per DRAM burst
system.mem_ctrls0.avgRdBW                      130.84                       # Average DRAM read bandwidth in MiByte/s
system.mem_ctrls0.avgWrBW                       55.11                       # Average achieved write bandwidth in MiByte/s
system.mem_ctrls0.avgRdBWSys                   130.92                       # Average system read bandwidth in MiByte/s
system.mem_ctrls0.avgWrBWSys                    55.11                       # Average system write bandwidth in MiByte/s
system.mem_ctrls0.peakBW                     12800.00                       # Theoretical peak bandwidth in MiByte/s
system.mem_ctrls0.busUtil                        1.45                       # Data bus utilization in percentage
system.mem_ctrls0.busUtilRead                    1.02                       # Data bus utilization in percentage for reads
system.mem_ctrls0.busUtilWrite                   0.43                       # Data bus utilization in percentage for writes
system.mem_ctrls0.avgRdQLen                      1.02                       # Average read queue length when enqueuing
system.mem_ctrls0.avgWrQLen                     24.53                       # Average write queue length when enqueuing
system.mem_ctrls0.readRowHits                 3674219                       # Number of row buffer hits during reads
system.mem_ctrls0.writeRowHits                  56724                       # Number of row buffer hits during writes
system.mem_ctrls0.readRowHitRate                49.01                       # Row buffer hit rate for reads
system.mem_ctrls0.writeRowHitRate                1.80                       # Row buffer hit rate for writes
system.mem_ctrls0.avgGap                    344025.74                       # Average gap between requests
system.mem_ctrls0.pageHitRate                   35.02                       # Row buffer hit rate, read and write combined
system.mem_ctrls0_0.actEnergy             24758442660                       # Energy for activate commands per rank (pJ)
system.mem_ctrls0_0.preEnergy             13159424355                       # Energy for precharge commands per rank (pJ)
system.mem_ctrls0_0.readEnergy            26844936300                       # Energy for read commands per rank (pJ)
system.mem_ctrls0_0.writeEnergy            8269330860                       # Energy for write commands per rank (pJ)
system.mem_ctrls0_0.refreshEnergy        291316003680.000061                       # Energy for refresh commands per rank (pJ)
system.mem_ctrls0_0.actBackEnergy        193954896360                       # Energy for active background per rank (pJ)
system.mem_ctrls0_0.preBackEnergy          7242522720                       # Energy for precharge background per rank (pJ)
system.mem_ctrls0_0.actPowerDownEnergy   1215148302960                       # Energy for active power-down per rank (pJ)
system.mem_ctrls0_0.prePowerDownEnergy   195322197600                       # Energy for precharge power-down per rank (pJ)
system.mem_ctrls0_0.selfRefreshEnergy     17372089200                       # Energy for self refresh per rank (pJ)
system.mem_ctrls0_0.totalEnergy          1993431322335                       # Total energy per rank (pJ)
system.mem_ctrls0_0.averagePower           543.627833                       # Core power per rank (mW)
system.mem_ctrls0_0.totalIdleTime        3222609945119                       # Total Idle time Per DRAM Rank
system.mem_ctrls0_0.memoryStateTime::IDLE   5353266110                       # Time in different power states
system.mem_ctrls0_0.memoryStateTime::REF 123294692000                       # Time in different power states
system.mem_ctrls0_0.memoryStateTime::SREF  49157540179                       # Time in different power states
system.mem_ctrls0_0.memoryStateTime::PRE_PDN 508651541096                       # Time in different power states
system.mem_ctrls0_0.memoryStateTime::ACT 315646284450                       # Time in different power states
system.mem_ctrls0_0.memoryStateTime::ACT_PDN 2664801125474                       # Time in different power states
system.mem_ctrls0_1.actEnergy             24673555200                       # Energy for activate commands per rank (pJ)
system.mem_ctrls0_1.preEnergy             13114298010                       # Energy for precharge commands per rank (pJ)
system.mem_ctrls0_1.readEnergy            26681930100                       # Energy for read commands per rank (pJ)
system.mem_ctrls0_1.writeEnergy            8212464180                       # Energy for write commands per rank (pJ)
system.mem_ctrls0_1.refreshEnergy        291367018800.000061                       # Energy for refresh commands per rank (pJ)
system.mem_ctrls0_1.actBackEnergy        194081614770                       # Energy for active background per rank (pJ)
system.mem_ctrls0_1.preBackEnergy          7255096320                       # Energy for precharge background per rank (pJ)
system.mem_ctrls0_1.actPowerDownEnergy   1213043772900                       # Energy for active power-down per rank (pJ)
system.mem_ctrls0_1.prePowerDownEnergy   196578250560                       # Energy for precharge power-down per rank (pJ)
system.mem_ctrls0_1.selfRefreshEnergy     17748067545                       # Energy for self refresh per rank (pJ)
system.mem_ctrls0_1.totalEnergy          1992798510435                       # Total energy per rank (pJ)
system.mem_ctrls0_1.averagePower           543.455258                       # Core power per rank (mW)
system.mem_ctrls0_1.totalIdleTime        3222303067965                       # Total Idle time Per DRAM Rank
system.mem_ctrls0_1.memoryStateTime::IDLE   5408749463                       # Time in different power states
system.mem_ctrls0_1.memoryStateTime::REF 123317664000                       # Time in different power states
system.mem_ctrls0_1.memoryStateTime::SREF  50192713579                       # Time in different power states
system.mem_ctrls0_1.memoryStateTime::PRE_PDN 511923914166                       # Time in different power states
system.mem_ctrls0_1.memoryStateTime::ACT 315874828462                       # Time in different power states
system.mem_ctrls0_1.memoryStateTime::ACT_PDN 2660186579639                       # Time in different power states
system.mem_ctrls1.pwrStateResidencyTicks::UNDEFINED 130619900974041                       # Cumulative time (in ticks) in various power states
system.mem_ctrls1.bytes_read::cpu.data            128                       # Number of bytes read from this memory
system.mem_ctrls1.bytes_read::switch_cpus.inst        58048                       # Number of bytes read from this memory
system.mem_ctrls1.bytes_read::switch_cpus.data    392238080                       # Number of bytes read from this memory
system.mem_ctrls1.bytes_read::switch_cpus_1.inst        19520                       # Number of bytes read from this memory
system.mem_ctrls1.bytes_read::switch_cpus_1.data     88722880                       # Number of bytes read from this memory
system.mem_ctrls1.bytes_read::total         481038656                       # Number of bytes read from this memory
system.mem_ctrls1.bytes_inst_read::switch_cpus.inst        58048                       # Number of instructions bytes read from this memory
system.mem_ctrls1.bytes_inst_read::switch_cpus_1.inst        19520                       # Number of instructions bytes read from this memory
system.mem_ctrls1.bytes_inst_read::total        77568                       # Number of instructions bytes read from this memory
system.mem_ctrls1.bytes_written::writebacks    201594944                       # Number of bytes written to this memory
system.mem_ctrls1.bytes_written::total      201594944                       # Number of bytes written to this memory
system.mem_ctrls1.num_reads::cpu.data               2                       # Number of read requests responded to by this memory
system.mem_ctrls1.num_reads::switch_cpus.inst          907                       # Number of read requests responded to by this memory
system.mem_ctrls1.num_reads::switch_cpus.data      6128720                       # Number of read requests responded to by this memory
system.mem_ctrls1.num_reads::switch_cpus_1.inst          305                       # Number of read requests responded to by this memory
system.mem_ctrls1.num_reads::switch_cpus_1.data      1386295                       # Number of read requests responded to by this memory
system.mem_ctrls1.num_reads::total            7516229                       # Number of read requests responded to by this memory
system.mem_ctrls1.num_writes::writebacks      3149921                       # Number of write requests responded to by this memory
system.mem_ctrls1.num_writes::total           3149921                       # Number of write requests responded to by this memory
system.mem_ctrls1.bw_read::cpu.data                35                       # Total read bandwidth from this memory (bytes/s)
system.mem_ctrls1.bw_read::switch_cpus.inst        15830                       # Total read bandwidth from this memory (bytes/s)
system.mem_ctrls1.bw_read::switch_cpus.data    106967085                       # Total read bandwidth from this memory (bytes/s)
system.mem_ctrls1.bw_read::switch_cpus_1.inst         5323                       # Total read bandwidth from this memory (bytes/s)
system.mem_ctrls1.bw_read::switch_cpus_1.data     24195580                       # Total read bandwidth from this memory (bytes/s)
system.mem_ctrls1.bw_read::total            131183853                       # Total read bandwidth from this memory (bytes/s)
system.mem_ctrls1.bw_inst_read::switch_cpus.inst        15830                       # Instruction read bandwidth from this memory (bytes/s)
system.mem_ctrls1.bw_inst_read::switch_cpus_1.inst         5323                       # Instruction read bandwidth from this memory (bytes/s)
system.mem_ctrls1.bw_inst_read::total           21154                       # Instruction read bandwidth from this memory (bytes/s)
system.mem_ctrls1.bw_write::writebacks       54976874                       # Write bandwidth from this memory (bytes/s)
system.mem_ctrls1.bw_write::total            54976874                       # Write bandwidth from this memory (bytes/s)
system.mem_ctrls1.bw_total::writebacks       54976874                       # Total bandwidth to/from this memory (bytes/s)
system.mem_ctrls1.bw_total::cpu.data               35                       # Total bandwidth to/from this memory (bytes/s)
system.mem_ctrls1.bw_total::switch_cpus.inst        15830                       # Total bandwidth to/from this memory (bytes/s)
system.mem_ctrls1.bw_total::switch_cpus.data    106967085                       # Total bandwidth to/from this memory (bytes/s)
system.mem_ctrls1.bw_total::switch_cpus_1.inst         5323                       # Total bandwidth to/from this memory (bytes/s)
system.mem_ctrls1.bw_total::switch_cpus_1.data     24195580                       # Total bandwidth to/from this memory (bytes/s)
system.mem_ctrls1.bw_total::total           186160728                       # Total bandwidth to/from this memory (bytes/s)
system.mem_ctrls1.readReqs                    7516229                       # Number of read requests accepted
system.mem_ctrls1.writeReqs                   3149921                       # Number of write requests accepted
system.mem_ctrls1.readBursts                  7516229                       # Number of DRAM read bursts, including those serviced by the write queue
system.mem_ctrls1.writeBursts                 3149921                       # Number of DRAM write bursts, including those merged in the write queue
system.mem_ctrls1.bytesReadDRAM             480747776                       # Total number of bytes read from DRAM
system.mem_ctrls1.bytesReadWrQ                 290880                       # Total number of bytes read from write queue
system.mem_ctrls1.bytesWritten              201593600                       # Total number of bytes written to DRAM
system.mem_ctrls1.bytesReadSys              481038656                       # Total read bytes from the system interface side
system.mem_ctrls1.bytesWrittenSys           201594944                       # Total written bytes from the system interface side
system.mem_ctrls1.servicedByWrQ                  4545                       # Number of DRAM read bursts serviced by the write queue
system.mem_ctrls1.mergedWrBursts                    0                       # Number of DRAM write bursts merged with an existing one
system.mem_ctrls1.neitherReadNorWriteReqs            0                       # Number of requests that are neither read nor write
system.mem_ctrls1.perBankRdBursts::0           466408                       # Per bank write bursts
system.mem_ctrls1.perBankRdBursts::1           470639                       # Per bank write bursts
system.mem_ctrls1.perBankRdBursts::2           472714                       # Per bank write bursts
system.mem_ctrls1.perBankRdBursts::3           457246                       # Per bank write bursts
system.mem_ctrls1.perBankRdBursts::4           453499                       # Per bank write bursts
system.mem_ctrls1.perBankRdBursts::5           472412                       # Per bank write bursts
system.mem_ctrls1.perBankRdBursts::6           488604                       # Per bank write bursts
system.mem_ctrls1.perBankRdBursts::7           478115                       # Per bank write bursts
system.mem_ctrls1.perBankRdBursts::8           495992                       # Per bank write bursts
system.mem_ctrls1.perBankRdBursts::9           477554                       # Per bank write bursts
system.mem_ctrls1.perBankRdBursts::10          458367                       # Per bank write bursts
system.mem_ctrls1.perBankRdBursts::11          454128                       # Per bank write bursts
system.mem_ctrls1.perBankRdBursts::12          453015                       # Per bank write bursts
system.mem_ctrls1.perBankRdBursts::13          469870                       # Per bank write bursts
system.mem_ctrls1.perBankRdBursts::14          476750                       # Per bank write bursts
system.mem_ctrls1.perBankRdBursts::15          466371                       # Per bank write bursts
system.mem_ctrls1.perBankWrBursts::0           195935                       # Per bank write bursts
system.mem_ctrls1.perBankWrBursts::1           194293                       # Per bank write bursts
system.mem_ctrls1.perBankWrBursts::2           196970                       # Per bank write bursts
system.mem_ctrls1.perBankWrBursts::3           189855                       # Per bank write bursts
system.mem_ctrls1.perBankWrBursts::4           192349                       # Per bank write bursts
system.mem_ctrls1.perBankWrBursts::5           196264                       # Per bank write bursts
system.mem_ctrls1.perBankWrBursts::6           206216                       # Per bank write bursts
system.mem_ctrls1.perBankWrBursts::7           198651                       # Per bank write bursts
system.mem_ctrls1.perBankWrBursts::8           209187                       # Per bank write bursts
system.mem_ctrls1.perBankWrBursts::9           195495                       # Per bank write bursts
system.mem_ctrls1.perBankWrBursts::10          197655                       # Per bank write bursts
system.mem_ctrls1.perBankWrBursts::11          193544                       # Per bank write bursts
system.mem_ctrls1.perBankWrBursts::12          188850                       # Per bank write bursts
system.mem_ctrls1.perBankWrBursts::13          196575                       # Per bank write bursts
system.mem_ctrls1.perBankWrBursts::14          201148                       # Per bank write bursts
system.mem_ctrls1.perBankWrBursts::15          196913                       # Per bank write bursts
system.mem_ctrls1.numRdRetry                        0                       # Number of times read queue was full causing retry
system.mem_ctrls1.numWrRetry                        0                       # Number of times write queue was full causing retry
system.mem_ctrls1.totGap                 3666903853905                       # Total gap between requests
system.mem_ctrls1.readPktSize::0                    0                       # Read request sizes (log2)
system.mem_ctrls1.readPktSize::1                    0                       # Read request sizes (log2)
system.mem_ctrls1.readPktSize::2                    0                       # Read request sizes (log2)
system.mem_ctrls1.readPktSize::3                    0                       # Read request sizes (log2)
system.mem_ctrls1.readPktSize::4                    0                       # Read request sizes (log2)
system.mem_ctrls1.readPktSize::5                    0                       # Read request sizes (log2)
system.mem_ctrls1.readPktSize::6              7516229                       # Read request sizes (log2)
system.mem_ctrls1.writePktSize::0                   0                       # Write request sizes (log2)
system.mem_ctrls1.writePktSize::1                   0                       # Write request sizes (log2)
system.mem_ctrls1.writePktSize::2                   0                       # Write request sizes (log2)
system.mem_ctrls1.writePktSize::3                   0                       # Write request sizes (log2)
system.mem_ctrls1.writePktSize::4                   0                       # Write request sizes (log2)
system.mem_ctrls1.writePktSize::5                   0                       # Write request sizes (log2)
system.mem_ctrls1.writePktSize::6             3149921                       # Write request sizes (log2)
system.mem_ctrls1.rdQLenPdf::0                7240535                       # What read queue length does an incoming req see
system.mem_ctrls1.rdQLenPdf::1                 242599                       # What read queue length does an incoming req see
system.mem_ctrls1.rdQLenPdf::2                  26938                       # What read queue length does an incoming req see
system.mem_ctrls1.rdQLenPdf::3                   1612                       # What read queue length does an incoming req see
system.mem_ctrls1.rdQLenPdf::4                      0                       # What read queue length does an incoming req see
system.mem_ctrls1.rdQLenPdf::5                      0                       # What read queue length does an incoming req see
system.mem_ctrls1.rdQLenPdf::6                      0                       # What read queue length does an incoming req see
system.mem_ctrls1.rdQLenPdf::7                      0                       # What read queue length does an incoming req see
system.mem_ctrls1.rdQLenPdf::8                      0                       # What read queue length does an incoming req see
system.mem_ctrls1.rdQLenPdf::9                      0                       # What read queue length does an incoming req see
system.mem_ctrls1.rdQLenPdf::10                     0                       # What read queue length does an incoming req see
system.mem_ctrls1.rdQLenPdf::11                     0                       # What read queue length does an incoming req see
system.mem_ctrls1.rdQLenPdf::12                     0                       # What read queue length does an incoming req see
system.mem_ctrls1.rdQLenPdf::13                     0                       # What read queue length does an incoming req see
system.mem_ctrls1.rdQLenPdf::14                     0                       # What read queue length does an incoming req see
system.mem_ctrls1.rdQLenPdf::15                     0                       # What read queue length does an incoming req see
system.mem_ctrls1.rdQLenPdf::16                     0                       # What read queue length does an incoming req see
system.mem_ctrls1.rdQLenPdf::17                     0                       # What read queue length does an incoming req see
system.mem_ctrls1.rdQLenPdf::18                     0                       # What read queue length does an incoming req see
system.mem_ctrls1.rdQLenPdf::19                     0                       # What read queue length does an incoming req see
system.mem_ctrls1.rdQLenPdf::20                     0                       # What read queue length does an incoming req see
system.mem_ctrls1.rdQLenPdf::21                     0                       # What read queue length does an incoming req see
system.mem_ctrls1.rdQLenPdf::22                     0                       # What read queue length does an incoming req see
system.mem_ctrls1.rdQLenPdf::23                     0                       # What read queue length does an incoming req see
system.mem_ctrls1.rdQLenPdf::24                     0                       # What read queue length does an incoming req see
system.mem_ctrls1.rdQLenPdf::25                     0                       # What read queue length does an incoming req see
system.mem_ctrls1.rdQLenPdf::26                     0                       # What read queue length does an incoming req see
system.mem_ctrls1.rdQLenPdf::27                     0                       # What read queue length does an incoming req see
system.mem_ctrls1.rdQLenPdf::28                     0                       # What read queue length does an incoming req see
system.mem_ctrls1.rdQLenPdf::29                     0                       # What read queue length does an incoming req see
system.mem_ctrls1.rdQLenPdf::30                     0                       # What read queue length does an incoming req see
system.mem_ctrls1.rdQLenPdf::31                     0                       # What read queue length does an incoming req see
system.mem_ctrls1.wrQLenPdf::0                      2                       # What write queue length does an incoming req see
system.mem_ctrls1.wrQLenPdf::1                      2                       # What write queue length does an incoming req see
system.mem_ctrls1.wrQLenPdf::2                      2                       # What write queue length does an incoming req see
system.mem_ctrls1.wrQLenPdf::3                      2                       # What write queue length does an incoming req see
system.mem_ctrls1.wrQLenPdf::4                      2                       # What write queue length does an incoming req see
system.mem_ctrls1.wrQLenPdf::5                      2                       # What write queue length does an incoming req see
system.mem_ctrls1.wrQLenPdf::6                      2                       # What write queue length does an incoming req see
system.mem_ctrls1.wrQLenPdf::7                      2                       # What write queue length does an incoming req see
system.mem_ctrls1.wrQLenPdf::8                      2                       # What write queue length does an incoming req see
system.mem_ctrls1.wrQLenPdf::9                      2                       # What write queue length does an incoming req see
system.mem_ctrls1.wrQLenPdf::10                     2                       # What write queue length does an incoming req see
system.mem_ctrls1.wrQLenPdf::11                     2                       # What write queue length does an incoming req see
system.mem_ctrls1.wrQLenPdf::12                     2                       # What write queue length does an incoming req see
system.mem_ctrls1.wrQLenPdf::13                     2                       # What write queue length does an incoming req see
system.mem_ctrls1.wrQLenPdf::14                     2                       # What write queue length does an incoming req see
system.mem_ctrls1.wrQLenPdf::15                155244                       # What write queue length does an incoming req see
system.mem_ctrls1.wrQLenPdf::16                160032                       # What write queue length does an incoming req see
system.mem_ctrls1.wrQLenPdf::17                176124                       # What write queue length does an incoming req see
system.mem_ctrls1.wrQLenPdf::18                176942                       # What write queue length does an incoming req see
system.mem_ctrls1.wrQLenPdf::19                176984                       # What write queue length does an incoming req see
system.mem_ctrls1.wrQLenPdf::20                177021                       # What write queue length does an incoming req see
system.mem_ctrls1.wrQLenPdf::21                177031                       # What write queue length does an incoming req see
system.mem_ctrls1.wrQLenPdf::22                177352                       # What write queue length does an incoming req see
system.mem_ctrls1.wrQLenPdf::23                179022                       # What write queue length does an incoming req see
system.mem_ctrls1.wrQLenPdf::24                177250                       # What write queue length does an incoming req see
system.mem_ctrls1.wrQLenPdf::25                176999                       # What write queue length does an incoming req see
system.mem_ctrls1.wrQLenPdf::26                177017                       # What write queue length does an incoming req see
system.mem_ctrls1.wrQLenPdf::27                176984                       # What write queue length does an incoming req see
system.mem_ctrls1.wrQLenPdf::28                176992                       # What write queue length does an incoming req see
system.mem_ctrls1.wrQLenPdf::29                177228                       # What write queue length does an incoming req see
system.mem_ctrls1.wrQLenPdf::30                178137                       # What write queue length does an incoming req see
system.mem_ctrls1.wrQLenPdf::31                176759                       # What write queue length does an incoming req see
system.mem_ctrls1.wrQLenPdf::32                176744                       # What write queue length does an incoming req see
system.mem_ctrls1.wrQLenPdf::33                    28                       # What write queue length does an incoming req see
system.mem_ctrls1.wrQLenPdf::34                     1                       # What write queue length does an incoming req see
system.mem_ctrls1.wrQLenPdf::35                     0                       # What write queue length does an incoming req see
system.mem_ctrls1.wrQLenPdf::36                     0                       # What write queue length does an incoming req see
system.mem_ctrls1.wrQLenPdf::37                     0                       # What write queue length does an incoming req see
system.mem_ctrls1.wrQLenPdf::38                     0                       # What write queue length does an incoming req see
system.mem_ctrls1.wrQLenPdf::39                     0                       # What write queue length does an incoming req see
system.mem_ctrls1.wrQLenPdf::40                     0                       # What write queue length does an incoming req see
system.mem_ctrls1.wrQLenPdf::41                     0                       # What write queue length does an incoming req see
system.mem_ctrls1.wrQLenPdf::42                     0                       # What write queue length does an incoming req see
system.mem_ctrls1.wrQLenPdf::43                     0                       # What write queue length does an incoming req see
system.mem_ctrls1.wrQLenPdf::44                     0                       # What write queue length does an incoming req see
system.mem_ctrls1.wrQLenPdf::45                     0                       # What write queue length does an incoming req see
system.mem_ctrls1.wrQLenPdf::46                     0                       # What write queue length does an incoming req see
system.mem_ctrls1.wrQLenPdf::47                     0                       # What write queue length does an incoming req see
system.mem_ctrls1.wrQLenPdf::48                     0                       # What write queue length does an incoming req see
system.mem_ctrls1.wrQLenPdf::49                     0                       # What write queue length does an incoming req see
system.mem_ctrls1.wrQLenPdf::50                     0                       # What write queue length does an incoming req see
system.mem_ctrls1.wrQLenPdf::51                     0                       # What write queue length does an incoming req see
system.mem_ctrls1.wrQLenPdf::52                     0                       # What write queue length does an incoming req see
system.mem_ctrls1.wrQLenPdf::53                     0                       # What write queue length does an incoming req see
system.mem_ctrls1.wrQLenPdf::54                     0                       # What write queue length does an incoming req see
system.mem_ctrls1.wrQLenPdf::55                     0                       # What write queue length does an incoming req see
system.mem_ctrls1.wrQLenPdf::56                     0                       # What write queue length does an incoming req see
system.mem_ctrls1.wrQLenPdf::57                     0                       # What write queue length does an incoming req see
system.mem_ctrls1.wrQLenPdf::58                     0                       # What write queue length does an incoming req see
system.mem_ctrls1.wrQLenPdf::59                     0                       # What write queue length does an incoming req see
system.mem_ctrls1.wrQLenPdf::60                     0                       # What write queue length does an incoming req see
system.mem_ctrls1.wrQLenPdf::61                     0                       # What write queue length does an incoming req see
system.mem_ctrls1.wrQLenPdf::62                     0                       # What write queue length does an incoming req see
system.mem_ctrls1.wrQLenPdf::63                     0                       # What write queue length does an incoming req see
system.mem_ctrls1.bytesPerActivate::samples      6915151                       # Bytes accessed per row activation
system.mem_ctrls1.bytesPerActivate::mean    98.673351                       # Bytes accessed per row activation
system.mem_ctrls1.bytesPerActivate::gmean    82.505312                       # Bytes accessed per row activation
system.mem_ctrls1.bytesPerActivate::stdev    86.762111                       # Bytes accessed per row activation
system.mem_ctrls1.bytesPerActivate::0-127      5253755     75.97%     75.97% # Bytes accessed per row activation
system.mem_ctrls1.bytesPerActivate::128-255      1200314     17.36%     93.33% # Bytes accessed per row activation
system.mem_ctrls1.bytesPerActivate::256-383       264023      3.82%     97.15% # Bytes accessed per row activation
system.mem_ctrls1.bytesPerActivate::384-511       117064      1.69%     98.84% # Bytes accessed per row activation
system.mem_ctrls1.bytesPerActivate::512-639        52504      0.76%     99.60% # Bytes accessed per row activation
system.mem_ctrls1.bytesPerActivate::640-767        17420      0.25%     99.85% # Bytes accessed per row activation
system.mem_ctrls1.bytesPerActivate::768-895         6004      0.09%     99.94% # Bytes accessed per row activation
system.mem_ctrls1.bytesPerActivate::896-1023         2371      0.03%     99.98% # Bytes accessed per row activation
system.mem_ctrls1.bytesPerActivate::1024-1151         1696      0.02%    100.00% # Bytes accessed per row activation
system.mem_ctrls1.bytesPerActivate::total      6915151                       # Bytes accessed per row activation
system.mem_ctrls1.rdPerTurnAround::samples       176740                       # Reads before turning the bus around for writes
system.mem_ctrls1.rdPerTurnAround::mean     42.501245                       # Reads before turning the bus around for writes
system.mem_ctrls1.rdPerTurnAround::gmean    40.799096                       # Reads before turning the bus around for writes
system.mem_ctrls1.rdPerTurnAround::stdev    58.477458                       # Reads before turning the bus around for writes
system.mem_ctrls1.rdPerTurnAround::0-1023       176739    100.00%    100.00% # Reads before turning the bus around for writes
system.mem_ctrls1.rdPerTurnAround::23552-24575            1      0.00%    100.00% # Reads before turning the bus around for writes
system.mem_ctrls1.rdPerTurnAround::total       176740                       # Reads before turning the bus around for writes
system.mem_ctrls1.wrPerTurnAround::samples       176740                       # Writes before turning the bus around for reads
system.mem_ctrls1.wrPerTurnAround::mean     17.822225                       # Writes before turning the bus around for reads
system.mem_ctrls1.wrPerTurnAround::gmean    17.810168                       # Writes before turning the bus around for reads
system.mem_ctrls1.wrPerTurnAround::stdev     0.639399                       # Writes before turning the bus around for reads
system.mem_ctrls1.wrPerTurnAround::16           16689      9.44%      9.44% # Writes before turning the bus around for reads
system.mem_ctrls1.wrPerTurnAround::17            4299      2.43%     11.88% # Writes before turning the bus around for reads
system.mem_ctrls1.wrPerTurnAround::18          149749     84.73%     96.60% # Writes before turning the bus around for reads
system.mem_ctrls1.wrPerTurnAround::19            5759      3.26%     99.86% # Writes before turning the bus around for reads
system.mem_ctrls1.wrPerTurnAround::20             235      0.13%     99.99% # Writes before turning the bus around for reads
system.mem_ctrls1.wrPerTurnAround::21               8      0.00%    100.00% # Writes before turning the bus around for reads
system.mem_ctrls1.wrPerTurnAround::22               1      0.00%    100.00% # Writes before turning the bus around for reads
system.mem_ctrls1.wrPerTurnAround::total       176740                       # Writes before turning the bus around for reads
system.mem_ctrls1.totQLat                160442033818                       # Total ticks spent queuing
system.mem_ctrls1.totMemAccLat           301286108818                       # Total ticks spent from burst creation until serviced by the DRAM
system.mem_ctrls1.totBusLat               37558420000                       # Total ticks spent in databus transfers
system.mem_ctrls1.avgQLat                    21359.00                       # Average queueing delay per DRAM burst
system.mem_ctrls1.avgBusLat                   5000.00                       # Average bus latency per DRAM burst
system.mem_ctrls1.avgMemAccLat               40109.00                       # Average memory access latency per DRAM burst
system.mem_ctrls1.avgRdBW                      131.10                       # Average DRAM read bandwidth in MiByte/s
system.mem_ctrls1.avgWrBW                       54.98                       # Average achieved write bandwidth in MiByte/s
system.mem_ctrls1.avgRdBWSys                   131.18                       # Average system read bandwidth in MiByte/s
system.mem_ctrls1.avgWrBWSys                    54.98                       # Average system write bandwidth in MiByte/s
system.mem_ctrls1.peakBW                     12800.00                       # Theoretical peak bandwidth in MiByte/s
system.mem_ctrls1.busUtil                        1.45                       # Data bus utilization in percentage
system.mem_ctrls1.busUtilRead                    1.02                       # Data bus utilization in percentage for reads
system.mem_ctrls1.busUtilWrite                   0.43                       # Data bus utilization in percentage for writes
system.mem_ctrls1.avgRdQLen                      1.02                       # Average read queue length when enqueuing
system.mem_ctrls1.avgWrQLen                     24.52                       # Average write queue length when enqueuing
system.mem_ctrls1.readRowHits                 3690017                       # Number of row buffer hits during reads
system.mem_ctrls1.writeRowHits                  56413                       # Number of row buffer hits during writes
system.mem_ctrls1.readRowHitRate                49.12                       # Row buffer hit rate for reads
system.mem_ctrls1.writeRowHitRate                1.79                       # Row buffer hit rate for writes
system.mem_ctrls1.avgGap                    343788.89                       # Average gap between requests
system.mem_ctrls1.pageHitRate                   35.14                       # Row buffer hit rate, read and write combined
system.mem_ctrls1_0.actEnergy             24666636540                       # Energy for activate commands per rank (pJ)
system.mem_ctrls1_0.preEnergy             13110628245                       # Energy for precharge commands per rank (pJ)
system.mem_ctrls1_0.readEnergy            26843808180                       # Energy for read commands per rank (pJ)
system.mem_ctrls1_0.writeEnergy            8198182260                       # Energy for write commands per rank (pJ)
system.mem_ctrls1_0.refreshEnergy        291281583840.000061                       # Energy for refresh commands per rank (pJ)
system.mem_ctrls1_0.actBackEnergy        193342042620                       # Energy for active background per rank (pJ)
system.mem_ctrls1_0.preBackEnergy          7222522560                       # Energy for precharge background per rank (pJ)
system.mem_ctrls1_0.actPowerDownEnergy   1217392513230                       # Energy for active power-down per rank (pJ)
system.mem_ctrls1_0.prePowerDownEnergy   194425244160                       # Energy for precharge power-down per rank (pJ)
system.mem_ctrls1_0.selfRefreshEnergy     16962557085                       # Energy for self refresh per rank (pJ)
system.mem_ctrls1_0.totalEnergy          1993488494760                       # Total energy per rank (pJ)
system.mem_ctrls1_0.averagePower           543.643422                       # Core power per rank (mW)
system.mem_ctrls1_0.totalIdleTime        3224001889049                       # Total Idle time Per DRAM Rank
system.mem_ctrls1_0.memoryStateTime::IDLE   5281344674                       # Time in different power states
system.mem_ctrls1_0.memoryStateTime::REF 123278800000                       # Time in different power states
system.mem_ctrls1_0.memoryStateTime::SREF  47968781269                       # Time in different power states
system.mem_ctrls1_0.memoryStateTime::PRE_PDN 506313571433                       # Time in different power states
system.mem_ctrls1_0.memoryStateTime::ACT 314341421046                       # Time in different power states
system.mem_ctrls1_0.memoryStateTime::ACT_PDN 2669720530887                       # Time in different power states
system.mem_ctrls1_1.actEnergy             24707563020                       # Energy for activate commands per rank (pJ)
system.mem_ctrls1_1.preEnergy             13132369800                       # Energy for precharge commands per rank (pJ)
system.mem_ctrls1_1.readEnergy            26789615580                       # Energy for read commands per rank (pJ)
system.mem_ctrls1_1.writeEnergy            8244295740                       # Energy for write commands per rank (pJ)
system.mem_ctrls1_1.refreshEnergy        291345506400.000061                       # Energy for refresh commands per rank (pJ)
system.mem_ctrls1_1.actBackEnergy        194255134170                       # Energy for active background per rank (pJ)
system.mem_ctrls1_1.preBackEnergy          7253431680                       # Energy for precharge background per rank (pJ)
system.mem_ctrls1_1.actPowerDownEnergy   1212852544170                       # Energy for active power-down per rank (pJ)
system.mem_ctrls1_1.prePowerDownEnergy   196560566880                       # Energy for precharge power-down per rank (pJ)
system.mem_ctrls1_1.selfRefreshEnergy     17755734855                       # Energy for self refresh per rank (pJ)
system.mem_ctrls1_1.totalEnergy          1992939145095                       # Total energy per rank (pJ)
system.mem_ctrls1_1.averagePower           543.493610                       # Core power per rank (mW)
system.mem_ctrls1_1.totalIdleTime        3221911950217                       # Total Idle time Per DRAM Rank
system.mem_ctrls1_1.memoryStateTime::IDLE   5397999091                       # Time in different power states
system.mem_ctrls1_1.memoryStateTime::REF 123308528000                       # Time in different power states
system.mem_ctrls1_1.memoryStateTime::SREF  50282104178                       # Time in different power states
system.mem_ctrls1_1.memoryStateTime::PRE_PDN 511873659862                       # Time in different power states
system.mem_ctrls1_1.memoryStateTime::ACT 316285515996                       # Time in different power states
system.mem_ctrls1_1.memoryStateTime::ACT_PDN 2659756642182                       # Time in different power states
system.pwrStateResidencyTicks::UNDEFINED 130619900974041                       # Cumulative time (in ticks) in various power states
system.cpu.branchPred.lookups                       3                       # Number of BP lookups
system.cpu.branchPred.condPredicted                 3                       # Number of conditional branches predicted
system.cpu.branchPred.condIncorrect                 1                       # Number of conditional branches incorrect
system.cpu.branchPred.BTBLookups                    0                       # Number of BTB lookups
system.cpu.branchPred.BTBHits                       0                       # Number of BTB hits
system.cpu.branchPred.BTBCorrect                    0                       # Number of correct BTB predictions (this stat may not work properly.
system.cpu.branchPred.BTBHitPct                   nan                       # BTB Hit Percentage
system.cpu.branchPred.usedRAS                       0                       # Number of times the RAS was used to get a target.
system.cpu.branchPred.RASInCorrect                  0                       # Number of incorrect RAS predictions.
system.cpu.branchPred.indirectLookups               0                       # Number of indirect predictor lookups.
system.cpu.branchPred.indirectHits                  0                       # Number of indirect target hits.
system.cpu.branchPred.indirectMisses                0                       # Number of indirect misses.
system.cpu.branchPredindirectMispredicted            0                       # Number of mispredicted indirect branches.
system.cpu_voltage_domain.voltage                   1                       # Voltage in Volts
system.cpu_clk_domain.clock                       333                       # Clock period in ticks
system.cpu.dtb.fetch_hits                           0                       # ITB hits
system.cpu.dtb.fetch_misses                         0                       # ITB misses
system.cpu.dtb.fetch_acv                            0                       # ITB acv
system.cpu.dtb.fetch_accesses                       0                       # ITB accesses
system.cpu.dtb.read_hits                            2                       # DTB read hits
system.cpu.dtb.read_misses                          0                       # DTB read misses
system.cpu.dtb.read_acv                             0                       # DTB read access violations
system.cpu.dtb.read_accesses                        2                       # DTB read accesses
system.cpu.dtb.write_hits                           0                       # DTB write hits
system.cpu.dtb.write_misses                         0                       # DTB write misses
system.cpu.dtb.write_acv                            0                       # DTB write access violations
system.cpu.dtb.write_accesses                       0                       # DTB write accesses
system.cpu.dtb.data_hits                            2                       # DTB hits
system.cpu.dtb.data_misses                          0                       # DTB misses
system.cpu.dtb.data_acv                             0                       # DTB access violations
system.cpu.dtb.data_accesses                        2                       # DTB accesses
system.cpu.itb.fetch_hits                           3                       # ITB hits
system.cpu.itb.fetch_misses                         0                       # ITB misses
system.cpu.itb.fetch_acv                            0                       # ITB acv
system.cpu.itb.fetch_accesses                       3                       # ITB accesses
system.cpu.itb.read_hits                            0                       # DTB read hits
system.cpu.itb.read_misses                          0                       # DTB read misses
system.cpu.itb.read_acv                             0                       # DTB read access violations
system.cpu.itb.read_accesses                        0                       # DTB read accesses
system.cpu.itb.write_hits                           0                       # DTB write hits
system.cpu.itb.write_misses                         0                       # DTB write misses
system.cpu.itb.write_acv                            0                       # DTB write access violations
system.cpu.itb.write_accesses                       0                       # DTB write accesses
system.cpu.itb.data_hits                            0                       # DTB hits
system.cpu.itb.data_misses                          0                       # DTB misses
system.cpu.itb.data_acv                             0                       # DTB access violations
system.cpu.itb.data_accesses                        0                       # DTB accesses
system.cpu.workload.num_syscalls                    0                       # Number of system calls
system.cpu.pwrStateResidencyTicks::ON    3666904449309                       # Cumulative time (in ticks) in various power states
system.cpu.numCycles                              493                       # number of cpu cycles simulated
system.cpu.numWorkItemsStarted                      0                       # number of work items this cpu started
system.cpu.numWorkItemsCompleted                    0                       # number of work items this cpu completed
system.cpu.fetch.icacheStallCycles                 19                       # Number of cycles fetch is stalled on an Icache miss
system.cpu.fetch.Insts                              9                       # Number of instructions fetch has processed
system.cpu.fetch.Branches                           3                       # Number of branches that fetch encountered
system.cpu.fetch.Cycles                             2                       # Number of cycles fetch has run and was not squashing or blocked
system.cpu.fetch.SquashCycles                       5                       # Number of cycles fetch has spent squashing
system.cpu.fetch.PendingDrainCycles                 3                       # Number of cycles fetch has spent waiting on pipes to drain
system.cpu.fetch.CacheLines                         3                       # Number of cache lines fetched
system.cpu.fetch.IcacheSquashes                     2                       # Number of outstanding Icache misses that were squashed
system.cpu.fetch.rateDist::samples                 26                       # Number of instructions fetched each cycle (Total)
system.cpu.fetch.rateDist::mean              0.346154                       # Number of instructions fetched each cycle (Total)
system.cpu.fetch.rateDist::stdev             1.573336                       # Number of instructions fetched each cycle (Total)
system.cpu.fetch.rateDist::underflows               0      0.00%      0.00% # Number of instructions fetched each cycle (Total)
system.cpu.fetch.rateDist::0                       24     92.31%     92.31% # Number of instructions fetched each cycle (Total)
system.cpu.fetch.rateDist::1                        1      3.85%     96.15% # Number of instructions fetched each cycle (Total)
system.cpu.fetch.rateDist::2                        0      0.00%     96.15% # Number of instructions fetched each cycle (Total)
system.cpu.fetch.rateDist::3                        0      0.00%     96.15% # Number of instructions fetched each cycle (Total)
system.cpu.fetch.rateDist::4                        0      0.00%     96.15% # Number of instructions fetched each cycle (Total)
system.cpu.fetch.rateDist::5                        0      0.00%     96.15% # Number of instructions fetched each cycle (Total)
system.cpu.fetch.rateDist::6                        0      0.00%     96.15% # Number of instructions fetched each cycle (Total)
system.cpu.fetch.rateDist::7                        0      0.00%     96.15% # Number of instructions fetched each cycle (Total)
system.cpu.fetch.rateDist::8                        1      3.85%    100.00% # Number of instructions fetched each cycle (Total)
system.cpu.fetch.rateDist::overflows                0      0.00%    100.00% # Number of instructions fetched each cycle (Total)
system.cpu.fetch.rateDist::min_value                0                       # Number of instructions fetched each cycle (Total)
system.cpu.fetch.rateDist::max_value                8                       # Number of instructions fetched each cycle (Total)
system.cpu.fetch.rateDist::total                   26                       # Number of instructions fetched each cycle (Total)
system.cpu.fetch.branchRate                  0.006085                       # Number of branch fetches per cycle
system.cpu.fetch.rate                        0.018256                       # Number of inst fetches per cycle
system.cpu.decode.IdleCycles                       21                       # Number of cycles decode is idle
system.cpu.decode.RunCycles                         2                       # Number of cycles decode is running
[...]
system.switch_cpus_1.iq.int_inst_queue_wakeup_accesses    321183475                       # Number of integer instruction queue wakeup accesses
system.switch_cpus_1.iq.fp_inst_queue_reads     69898904                       # Number of floating instruction queue reads
system.switch_cpus_1.iq.fp_inst_queue_writes    112226524                       # Number of floating instruction queue writes
system.switch_cpus_1.iq.fp_inst_queue_wakeup_accesses     28778212                       # Number of floating instruction queue wakeup accesses
system.switch_cpus_1.iq.int_alu_accesses    351973026                       # Number of integer alu accesses
system.switch_cpus_1.iq.fp_alu_accesses      35148852                       # Number of floating point alu accesses
system.switch_cpus_1.iew.lsq.thread0.forwLoads      9395863                       # Number of loads that had data forwarded from stores
system.switch_cpus_1.iew.lsq.thread0.invAddrLoads            0                       # Number of loads ignored due to an invalid address
system.switch_cpus_1.iew.lsq.thread0.squashedLoads     68329226                       # Number of loads squashed
system.switch_cpus_1.iew.lsq.thread0.ignoredResponses        27048                       # Number of memory responses ignored because the instruction is squashed
system.switch_cpus_1.iew.lsq.thread0.memOrderViolation        11114                       # Number of memory ordering violations
system.switch_cpus_1.iew.lsq.thread0.squashedStores     29626347                       # Number of stores squashed
system.switch_cpus_1.iew.lsq.thread0.invAddrSwpfs            0                       # Number of software prefetches ignored due to an invalid address
system.switch_cpus_1.iew.lsq.thread0.blockedLoads            0                       # Number of blocked loads due to partial load-store forwarding
system.switch_cpus_1.iew.lsq.thread0.rescheduledLoads          417                       # Number of loads that were rescheduled
system.switch_cpus_1.iew.lsq.thread0.cacheBlocked      2721255                       # Number of times an access to memory failed due to the cache being blocked
system.switch_cpus_1.iew.iewIdleCycles              0                       # Number of cycles IEW is idle
system.switch_cpus_1.iew.iewSquashCycles      3812717                       # Number of cycles IEW is squashing
system.switch_cpus_1.iew.iewBlockCycles     263857278                       # Number of cycles IEW is blocking
system.switch_cpus_1.iew.iewUnblockCycles    153605451                       # Number of cycles IEW is unblocking
system.switch_cpus_1.iew.iewDispatchedInsts    487924681                       # Number of instructions dispatched to IQ
system.switch_cpus_1.iew.iewDispSquashedInsts       129898                       # Number of squashed instructions skipped by dispatch
system.switch_cpus_1.iew.iewDispLoadInsts    116056482                       # Number of dispatched load instructions
system.switch_cpus_1.iew.iewDispStoreInsts     58855174                       # Number of dispatched store instructions
system.switch_cpus_1.iew.iewDispNonSpecInsts       528969                       # Number of dispatched non-speculative instructions
system.switch_cpus_1.iew.iewIQFullEvents      1304636                       # Number of times the IQ has become full, causing a stall
system.switch_cpus_1.iew.iewLSQFullEvents    152019748                       # Number of times the LSQ has become full, causing a stall
system.switch_cpus_1.iew.memOrderViolationEvents        11114                       # Number of memory order violations
system.switch_cpus_1.iew.predictedTakenIncorrect       751663                       # Number of branches that were predicted taken incorrectly
system.switch_cpus_1.iew.predictedNotTakenIncorrect      1146152                       # Number of branches that were predicted not taken incorrectly
system.switch_cpus_1.iew.branchMispredicts      1897815                       # Number of branch mispredicts detected at execute
system.switch_cpus_1.iew.iewExecutedInsts    375920234                       # Number of executed instructions
system.switch_cpus_1.iew.iewExecLoadInsts    102777645                       # Number of load instructions executed
system.switch_cpus_1.iew.iewExecSquashedInsts      4127145                       # Number of squashed instructions skipped in execute
system.switch_cpus_1.iew.exec_swp                   0                       # number of swp insts executed
system.switch_cpus_1.iew.exec_nop            23247769                       # number of nop insts executed
system.switch_cpus_1.iew.exec_refs          155165802                       # number of memory reference insts executed
system.switch_cpus_1.iew.exec_branches       72660829                       # Number of branches executed
system.switch_cpus_1.iew.exec_stores         52388157                       # Number of stores executed
system.switch_cpus_1.iew.exec_rate           0.349073                       # Inst execution rate
system.switch_cpus_1.iew.wb_sent            370476783                       # cumulative count of insts sent to commit
system.switch_cpus_1.iew.wb_count           349961687                       # cumulative count of insts written-back
system.switch_cpus_1.iew.wb_producers       177162872                       # num instructions producing a value
system.switch_cpus_1.iew.wb_consumers       259991424                       # num instructions consuming a value
system.switch_cpus_1.iew.wb_rate             0.324969                       # insts written-back per cycle
system.switch_cpus_1.iew.wb_fanout           0.681418                       # average fanout of values written-back
system.switch_cpus_1.commit.commitSquashedInsts    231617501                       # The number of squashed insts skipped by commit
system.switch_cpus_1.commit.commitNonSpecStalls       665598                       # The number of times commit has been forced to stall to communicate backwards
system.switch_cpus_1.commit.branchMispredicts      1459229                       # The number of times a branch was mispredicted
system.switch_cpus_1.commit.committed_per_cycle::samples   1042135783                       # Number of insts commited each cycle
system.switch_cpus_1.commit.committed_per_cycle::mean     0.204958                       # Number of insts commited each cycle
system.switch_cpus_1.commit.committed_per_cycle::stdev     1.105897                       # Number of insts commited each cycle
system.switch_cpus_1.commit.committed_per_cycle::underflows            0      0.00%      0.00% # Number of insts commited each cycle
system.switch_cpus_1.commit.committed_per_cycle::0    987996196     94.80%     94.80% # Number of insts commited each cycle
system.switch_cpus_1.commit.committed_per_cycle::1     19847908      1.90%     96.71% # Number of insts commited each cycle
system.switch_cpus_1.commit.committed_per_cycle::2      5993882      0.58%     97.28% # Number of insts commited each cycle
system.switch_cpus_1.commit.committed_per_cycle::3      3719338      0.36%     97.64% # Number of insts commited each cycle
system.switch_cpus_1.commit.committed_per_cycle::4      3283739      0.32%     97.96% # Number of insts commited each cycle
system.switch_cpus_1.commit.committed_per_cycle::5      2532372      0.24%     98.20% # Number of insts commited each cycle
system.switch_cpus_1.commit.committed_per_cycle::6      1902590      0.18%     98.38% # Number of insts commited each cycle
system.switch_cpus_1.commit.committed_per_cycle::7      1489696      0.14%     98.53% # Number of insts commited each cycle
system.switch_cpus_1.commit.committed_per_cycle::8     15370062      1.47%    100.00% # Number of insts commited each cycle
system.switch_cpus_1.commit.committed_per_cycle::overflows            0      0.00%    100.00% # Number of insts commited each cycle
system.switch_cpus_1.commit.committed_per_cycle::min_value            0                       # Number of insts commited each cycle
system.switch_cpus_1.commit.committed_per_cycle::max_value            8                       # Number of insts commited each cycle
system.switch_cpus_1.commit.committed_per_cycle::total   1042135783                       # Number of insts commited each cycle
system.switch_cpus_1.commit.committedInsts    213594410                       # Number of instructions committed
system.switch_cpus_1.commit.committedOps    213594410                       # Number of ops (including micro ops) committed
system.switch_cpus_1.commit.swp_count               0                       # Number of s/w prefetches committed
system.switch_cpus_1.commit.refs             76956073                       # Number of memory references committed
system.switch_cpus_1.commit.loads            47727246                       # Number of loads committed
system.switch_cpus_1.commit.membars            332799                       # Number of memory barriers committed
system.switch_cpus_1.commit.branches         42872050                       # Number of branches committed
system.switch_cpus_1.commit.fp_insts         19258208                       # Number of committed floating point instructions.
system.switch_cpus_1.commit.int_insts       185197309                       # Number of committed integer instructions.
system.switch_cpus_1.commit.function_calls      6276853                       # Number of function calls committed.
system.switch_cpus_1.commit.op_class_0::No_OpClass     13768422      6.45%      6.45% # Class of committed instruction
system.switch_cpus_1.commit.op_class_0::IntAlu    110964867     51.95%     58.40% # Class of committed instruction
system.switch_cpus_1.commit.op_class_0::IntMult        87084      0.04%     58.44% # Class of committed instruction
system.switch_cpus_1.commit.op_class_0::IntDiv            0      0.00%     58.44% # Class of committed instruction
system.switch_cpus_1.commit.op_class_0::FloatAdd      6284834      2.94%     61.38% # Class of committed instruction
system.switch_cpus_1.commit.op_class_0::FloatCmp      4706081      2.20%     63.58% # Class of committed instruction
system.switch_cpus_1.commit.op_class_0::FloatCvt       352967      0.17%     63.75% # Class of committed instruction
system.switch_cpus_1.commit.op_class_0::FloatMult        54220      0.03%     63.77% # Class of committed instruction
system.switch_cpus_1.commit.op_class_0::FloatMultAcc            0      0.00%     63.77% # Class of committed instruction
system.switch_cpus_1.commit.op_class_0::FloatDiv        87048      0.04%     63.82% # Class of committed instruction
system.switch_cpus_1.commit.op_class_0::FloatMisc            0      0.00%     63.82% # Class of committed instruction
system.switch_cpus_1.commit.op_class_0::FloatSqrt           15      0.00%     63.82% # Class of committed instruction
system.switch_cpus_1.commit.op_class_0::SimdAdd            0      0.00%     63.82% # Class of committed instruction
system.switch_cpus_1.commit.op_class_0::SimdAddAcc            0      0.00%     63.82% # Class of committed instruction
system.switch_cpus_1.commit.op_class_0::SimdAlu            0      0.00%     63.82% # Class of committed instruction
system.switch_cpus_1.commit.op_class_0::SimdCmp            0      0.00%     63.82% # Class of committed instruction
system.switch_cpus_1.commit.op_class_0::SimdCvt            0      0.00%     63.82% # Class of committed instruction
system.switch_cpus_1.commit.op_class_0::SimdMisc            0      0.00%     63.82% # Class of committed instruction
system.switch_cpus_1.commit.op_class_0::SimdMult            0      0.00%     63.82% # Class of committed instruction
system.switch_cpus_1.commit.op_class_0::SimdMultAcc            0      0.00%     63.82% # Class of committed instruction
system.switch_cpus_1.commit.op_class_0::SimdShift            0      0.00%     63.82% # Class of committed instruction
system.switch_cpus_1.commit.op_class_0::SimdShiftAcc            0      0.00%     63.82% # Class of committed instruction
system.switch_cpus_1.commit.op_class_0::SimdSqrt            0      0.00%     63.82% # Class of committed instruction
system.switch_cpus_1.commit.op_class_0::SimdFloatAdd            0      0.00%     63.82% # Class of committed instruction
system.switch_cpus_1.commit.op_class_0::SimdFloatAlu            0      0.00%     63.82% # Class of committed instruction
system.switch_cpus_1.commit.op_class_0::SimdFloatCmp            0      0.00%     63.82% # Class of committed instruction
system.switch_cpus_1.commit.op_class_0::SimdFloatCvt            0      0.00%     63.82% # Class of committed instruction
system.switch_cpus_1.commit.op_class_0::SimdFloatDiv            0      0.00%     63.82% # Class of committed instruction
system.switch_cpus_1.commit.op_class_0::SimdFloatMisc            0      0.00%     63.82% # Class of committed instruction
system.switch_cpus_1.commit.op_class_0::SimdFloatMult            0      0.00%     63.82% # Class of committed instruction
system.switch_cpus_1.commit.op_class_0::SimdFloatMultAcc            0      0.00%     63.82% # Class of committed instruction
system.switch_cpus_1.commit.op_class_0::SimdFloatSqrt            0      0.00%     63.82% # Class of committed instruction
system.switch_cpus_1.commit.op_class_0::MemRead     41999437     19.66%     83.48% # Class of committed instruction
system.switch_cpus_1.commit.op_class_0::MemWrite     27516392     12.88%     96.36% # Class of committed instruction
system.switch_cpus_1.commit.op_class_0::FloatMemRead      6060608      2.84%     99.20% # Class of committed instruction
system.switch_cpus_1.commit.op_class_0::FloatMemWrite      1712435      0.80%    100.00% # Class of committed instruction
system.switch_cpus_1.commit.op_class_0::IprAccess            0      0.00%    100.00% # Class of committed instruction
system.switch_cpus_1.commit.op_class_0::InstPrefetch            0      0.00%    100.00% # Class of committed instruction
system.switch_cpus_1.commit.op_class_0::total    213594410                       # Class of committed instruction
system.switch_cpus_1.commit.bw_lim_events     15370062                       # number cycles where commit BW limit reached
system.switch_cpus_1.rob.rob_reads         1441496285                       # The number of ROB reads
system.switch_cpus_1.rob.rob_writes         922483767                       # The number of ROB writes
system.switch_cpus_1.timesIdled                 22860                       # Number of times that the entire CPU went into an idle state and unscheduled itself
system.switch_cpus_1.idleCycles               2769875                       # Total number of cycles that the CPU has spent unscheduled due to idling
system.switch_cpus_1.committedInsts         200000000                       # Number of Instructions Simulated
system.switch_cpus_1.committedOps           200000000                       # Number of Ops (including micro ops) Simulated
system.switch_cpus_1.cpi                     5.384546                       # CPI: Cycles Per Instruction
system.switch_cpus_1.cpi_total               5.384546                       # CPI: Total CPI of All Threads
system.switch_cpus_1.ipc                     0.185717                       # IPC: Instructions Per Cycle
system.switch_cpus_1.ipc_total               0.185717                       # IPC: Total IPC of All Threads
system.switch_cpus_1.int_regfile_reads      476726466                       # number of integer regfile reads
system.switch_cpus_1.int_regfile_writes     219392137                       # number of integer regfile writes
system.switch_cpus_1.fp_regfile_reads        26339306                       # number of floating regfile reads
system.switch_cpus_1.fp_regfile_writes       19809062                       # number of floating regfile writes
system.switch_cpus_1.misc_regfile_reads        925537                       # number of misc regfile reads
system.switch_cpus_1.misc_regfile_writes       752604                       # number of misc regfile writes
system.tol3bus.snoop_filter.tot_requests     44294227                       # Total number of requests made to the snoop filter.
system.tol3bus.snoop_filter.hit_single_requests     22147393                       # Number of requests hitting in the snoop filter with a single holder of the requested data.
system.tol3bus.snoop_filter.hit_multi_requests            0                       # Number of requests hitting in the snoop filter with multiple (>1) holders of the requested data.
system.tol3bus.snoop_filter.tot_snoops         349332                       # Total number of snoops made to the snoop filter.
system.tol3bus.snoop_filter.hit_single_snoops       349332                       # Number of snoops hitting in the snoop filter with a single holder of the requested data.
system.tol3bus.snoop_filter.hit_multi_snoops            0                       # Number of snoops hitting in the snoop filter with multiple (>1) holders of the requested data.
system.tol3bus.pwrStateResidencyTicks::UNDEFINED 130619900974041                       # Cumulative time (in ticks) in various power states
system.tol3bus.trans_dist::ReadResp          18860917                       # Transaction distribution
system.tol3bus.trans_dist::WritebackDirty     17119742                       # Transaction distribution
system.tol3bus.trans_dist::CleanEvict        20108346                       # Transaction distribution
system.tol3bus.trans_dist::UpgradeReq            1849                       # Transaction distribution
system.tol3bus.trans_dist::UpgradeResp           1849                       # Transaction distribution
system.tol3bus.trans_dist::ReadExReq          3285917                       # Transaction distribution
system.tol3bus.trans_dist::ReadExResp         3285917                       # Transaction distribution
system.tol3bus.trans_dist::ReadSharedReq     18860917                       # Transaction distribution
system.tol3bus.pkt_count_system.cpu.l2.mem_side::system.l3.cpu_side     66442910                       # Packet count per connected master and slave (bytes)
system.tol3bus.pkt_size_system.cpu.l2.mem_side::system.l3.cpu_side   2109388416                       # Cumulative packet size per connected master and slave (bytes)
system.tol3bus.snoops                        15082544                       # Total snoops (count)
system.tol3bus.snoopTraffic                 403672448                       # Total snoop traffic (bytes)
system.tol3bus.snoop_fanout::samples         37231227                       # Request fanout histogram
system.tol3bus.snoop_fanout::mean            0.009383                       # Request fanout histogram
system.tol3bus.snoop_fanout::stdev           0.096409                       # Request fanout histogram
system.tol3bus.snoop_fanout::underflows             0      0.00%      0.00% # Request fanout histogram
system.tol3bus.snoop_fanout::0               36881895     99.06%     99.06% # Request fanout histogram
system.tol3bus.snoop_fanout::1                 349332      0.94%    100.00% # Request fanout histogram
system.tol3bus.snoop_fanout::overflows              0      0.00%    100.00% # Request fanout histogram
system.tol3bus.snoop_fanout::min_value              0                       # Request fanout histogram
system.tol3bus.snoop_fanout::max_value              1                       # Request fanout histogram
system.tol3bus.snoop_fanout::total           37231227                       # Request fanout histogram
system.tol3bus.reqLayer0.occupancy        18350493471                       # Layer occupancy (ticks)
system.tol3bus.reqLayer0.utilization              0.5                       # Layer utilization (%)
system.tol3bus.respLayer0.occupancy       14750407161                       # Layer occupancy (ticks)
system.tol3bus.respLayer0.utilization             0.4                       # Layer utilization (%)

---------- End Simulation Statistics   ----------
