
---------- Begin Simulation Statistics ----------
sim_seconds                                  1.061317                       # Number of seconds simulated
sim_ticks                                1061317227393                       # Number of ticks simulated
final_tick                               176612601349260                       # Number of ticks from beginning of simulation (restored from checkpoints and never reset)
sim_freq                                 1000000000000                       # Frequency of simulated ticks
host_inst_rate                                 747402                       # Simulator instruction rate (inst/s)
host_op_rate                                   747402                       # Simulator op (including micro ops) rate (op/s)
host_tick_rate                              661025085                       # Simulator tick rate (ticks/s)
host_mem_usage                                2388844                       # Number of bytes of host memory used
host_seconds                                  1605.56                       # Real time elapsed on the host
sim_insts                                  1200000005                       # Number of instructions simulated
sim_ops                                    1200000005                       # Number of ops (including micro ops) simulated
system.voltage_domain.voltage                       1                       # Voltage in Volts
system.clk_domain.clock                          1000                       # Clock period in ticks
system.mem_ctrls0.pwrStateResidencyTicks::UNDEFINED 176612601349260                       # Cumulative time (in ticks) in various power states
system.mem_ctrls0.bytes_read::cpu.inst             64                       # Number of bytes read from this memory
system.mem_ctrls0.bytes_read::cpu.data            192                       # Number of bytes read from this memory
system.mem_ctrls0.bytes_read::switch_cpus.inst        48384                       # Number of bytes read from this memory
system.mem_ctrls0.bytes_read::switch_cpus.data      2463488                       # Number of bytes read from this memory
system.mem_ctrls0.bytes_read::switch_cpus_1.inst        12544                       # Number of bytes read from this memory
system.mem_ctrls0.bytes_read::switch_cpus_1.data       459968                       # Number of bytes read from this memory
system.mem_ctrls0.bytes_read::total           2984640                       # Number of bytes read from this memory
system.mem_ctrls0.bytes_inst_read::cpu.inst           64                       # Number of instructions bytes read from this memory
system.mem_ctrls0.bytes_inst_read::switch_cpus.inst        48384                       # Number of instructions bytes read from this memory
system.mem_ctrls0.bytes_inst_read::switch_cpus_1.inst        12544                       # Number of instructions bytes read from this memory
system.mem_ctrls0.bytes_inst_read::total        60992                       # Number of instructions bytes read from this memory
system.mem_ctrls0.bytes_written::writebacks       466240                       # Number of bytes written to this memory
system.mem_ctrls0.bytes_written::total         466240                       # Number of bytes written to this memory
system.mem_ctrls0.num_reads::cpu.inst               1                       # Number of read requests responded to by this memory
system.mem_ctrls0.num_reads::cpu.data               3                       # Number of read requests responded to by this memory
system.mem_ctrls0.num_reads::switch_cpus.inst          756                       # Number of read requests responded to by this memory
system.mem_ctrls0.num_reads::switch_cpus.data        38492                       # Number of read requests responded to by this memory
system.mem_ctrls0.num_reads::switch_cpus_1.inst          196                       # Number of read requests responded to by this memory
system.mem_ctrls0.num_reads::switch_cpus_1.data         7187                       # Number of read requests responded to by this memory
system.mem_ctrls0.num_reads::total              46635                       # Number of read requests responded to by this memory
system.mem_ctrls0.num_writes::writebacks         7285                       # Number of write requests responded to by this memory
system.mem_ctrls0.num_writes::total              7285                       # Number of write requests responded to by this memory
system.mem_ctrls0.bw_read::cpu.inst                60                       # Total read bandwidth from this memory (bytes/s)
system.mem_ctrls0.bw_read::cpu.data               181                       # Total read bandwidth from this memory (bytes/s)
system.mem_ctrls0.bw_read::switch_cpus.inst        45589                       # Total read bandwidth from this memory (bytes/s)
system.mem_ctrls0.bw_read::switch_cpus.data      2321161                       # Total read bandwidth from this memory (bytes/s)
system.mem_ctrls0.bw_read::switch_cpus_1.inst        11819                       # Total read bandwidth from this memory (bytes/s)
system.mem_ctrls0.bw_read::switch_cpus_1.data       433394                       # Total read bandwidth from this memory (bytes/s)
system.mem_ctrls0.bw_read::total              2812203                       # Total read bandwidth from this memory (bytes/s)
system.mem_ctrls0.bw_inst_read::cpu.inst           60                       # Instruction read bandwidth from this memory (bytes/s)
system.mem_ctrls0.bw_inst_read::switch_cpus.inst        45589                       # Instruction read bandwidth from this memory (bytes/s)
system.mem_ctrls0.bw_inst_read::switch_cpus_1.inst        11819                       # Instruction read bandwidth from this memory (bytes/s)
system.mem_ctrls0.bw_inst_read::total           57468                       # Instruction read bandwidth from this memory (bytes/s)
system.mem_ctrls0.bw_write::writebacks         439303                       # Write bandwidth from this memory (bytes/s)
system.mem_ctrls0.bw_write::total              439303                       # Write bandwidth from this memory (bytes/s)
system.mem_ctrls0.bw_total::writebacks         439303                       # Total bandwidth to/from this memory (bytes/s)
system.mem_ctrls0.bw_total::cpu.inst               60                       # Total bandwidth to/from this memory (bytes/s)
system.mem_ctrls0.bw_total::cpu.data              181                       # Total bandwidth to/from this memory (bytes/s)
system.mem_ctrls0.bw_total::switch_cpus.inst        45589                       # Total bandwidth to/from this memory (bytes/s)
system.mem_ctrls0.bw_total::switch_cpus.data      2321161                       # Total bandwidth to/from this memory (bytes/s)
system.mem_ctrls0.bw_total::switch_cpus_1.inst        11819                       # Total bandwidth to/from this memory (bytes/s)
system.mem_ctrls0.bw_total::switch_cpus_1.data       433394                       # Total bandwidth to/from this memory (bytes/s)
system.mem_ctrls0.bw_total::total             3251507                       # Total bandwidth to/from this memory (bytes/s)
system.mem_ctrls0.readReqs                      46635                       # Number of read requests accepted
system.mem_ctrls0.writeReqs                      7285                       # Number of write requests accepted
system.mem_ctrls0.readBursts                    46635                       # Number of DRAM read bursts, including those serviced by the write queue
system.mem_ctrls0.writeBursts                    7285                       # Number of DRAM write bursts, including those merged in the write queue
system.mem_ctrls0.bytesReadDRAM               2934912                       # Total number of bytes read from DRAM
system.mem_ctrls0.bytesReadWrQ                  49728                       # Total number of bytes read from write queue
system.mem_ctrls0.bytesWritten                 464448                       # Total number of bytes written to DRAM
system.mem_ctrls0.bytesReadSys                2984640                       # Total read bytes from the system interface side
system.mem_ctrls0.bytesWrittenSys              466240                       # Total written bytes from the system interface side
system.mem_ctrls0.servicedByWrQ                   777                       # Number of DRAM read bursts serviced by the write queue
system.mem_ctrls0.mergedWrBursts                    4                       # Number of DRAM write bursts merged with an existing one
system.mem_ctrls0.neitherReadNorWriteReqs            0                       # Number of requests that are neither read nor write
system.mem_ctrls0.perBankRdBursts::0             2996                       # Per bank write bursts
system.mem_ctrls0.perBankRdBursts::1             2403                       # Per bank write bursts
system.mem_ctrls0.perBankRdBursts::2             2554                       # Per bank write bursts
system.mem_ctrls0.perBankRdBursts::3             2731                       # Per bank write bursts
system.mem_ctrls0.perBankRdBursts::4             2592                       # Per bank write bursts
system.mem_ctrls0.perBankRdBursts::5             2644                       # Per bank write bursts
system.mem_ctrls0.perBankRdBursts::6             3260                       # Per bank write bursts
system.mem_ctrls0.perBankRdBursts::7             2901                       # Per bank write bursts
system.mem_ctrls0.perBankRdBursts::8             2966                       # Per bank write bursts
system.mem_ctrls0.perBankRdBursts::9             2830                       # Per bank write bursts
system.mem_ctrls0.perBankRdBursts::10            2957                       # Per bank write bursts
system.mem_ctrls0.perBankRdBursts::11            2766                       # Per bank write bursts
system.mem_ctrls0.perBankRdBursts::12            2994                       # Per bank write bursts
system.mem_ctrls0.perBankRdBursts::13            2774                       # Per bank write bursts
system.mem_ctrls0.perBankRdBursts::14            3651                       # Per bank write bursts
system.mem_ctrls0.perBankRdBursts::15            2839                       # Per bank write bursts
system.mem_ctrls0.perBankWrBursts::0              575                       # Per bank write bursts
system.mem_ctrls0.perBankWrBursts::1              246                       # Per bank write bursts
system.mem_ctrls0.perBankWrBursts::2              348                       # Per bank write bursts
system.mem_ctrls0.perBankWrBursts::3              311                       # Per bank write bursts
system.mem_ctrls0.perBankWrBursts::4              406                       # Per bank write bursts
system.mem_ctrls0.perBankWrBursts::5              276                       # Per bank write bursts
system.mem_ctrls0.perBankWrBursts::6              789                       # Per bank write bursts
system.mem_ctrls0.perBankWrBursts::7              504                       # Per bank write bursts
system.mem_ctrls0.perBankWrBursts::8              530                       # Per bank write bursts
system.mem_ctrls0.perBankWrBursts::9              292                       # Per bank write bursts
system.mem_ctrls0.perBankWrBursts::10             364                       # Per bank write bursts
system.mem_ctrls0.perBankWrBursts::11             373                       # Per bank write bursts
system.mem_ctrls0.perBankWrBursts::12             463                       # Per bank write bursts
system.mem_ctrls0.perBankWrBursts::13             319                       # Per bank write bursts
system.mem_ctrls0.perBankWrBursts::14            1025                       # Per bank write bursts
system.mem_ctrls0.perBankWrBursts::15             436                       # Per bank write bursts
system.mem_ctrls0.numRdRetry                        0                       # Number of times read queue was full causing retry
system.mem_ctrls0.numWrRetry                        0                       # Number of times write queue was full causing retry
system.mem_ctrls0.totGap                 1061309973654                       # Total gap between requests
system.mem_ctrls0.readPktSize::0                    0                       # Read request sizes (log2)
system.mem_ctrls0.readPktSize::1                    0                       # Read request sizes (log2)
system.mem_ctrls0.readPktSize::2                    0                       # Read request sizes (log2)
system.mem_ctrls0.readPktSize::3                    0                       # Read request sizes (log2)
system.mem_ctrls0.readPktSize::4                    0                       # Read request sizes (log2)
system.mem_ctrls0.readPktSize::5                    0                       # Read request sizes (log2)
system.mem_ctrls0.readPktSize::6                46635                       # Read request sizes (log2)
system.mem_ctrls0.writePktSize::0                   0                       # Write request sizes (log2)
system.mem_ctrls0.writePktSize::1                   0                       # Write request sizes (log2)
system.mem_ctrls0.writePktSize::2                   0                       # Write request sizes (log2)
system.mem_ctrls0.writePktSize::3                   0                       # Write request sizes (log2)
system.mem_ctrls0.writePktSize::4                   0                       # Write request sizes (log2)
system.mem_ctrls0.writePktSize::5                   0                       # Write request sizes (log2)
system.mem_ctrls0.writePktSize::6                7285                       # Write request sizes (log2)
system.mem_ctrls0.rdQLenPdf::0                  45701                       # What read queue length does an incoming req see
system.mem_ctrls0.rdQLenPdf::1                    153                       # What read queue length does an incoming req see
system.mem_ctrls0.rdQLenPdf::2                      3                       # What read queue length does an incoming req see
system.mem_ctrls0.rdQLenPdf::3                      1                       # What read queue length does an incoming req see
system.mem_ctrls0.rdQLenPdf::4                      0                       # What read queue length does an incoming req see
system.mem_ctrls0.rdQLenPdf::5                      0                       # What read queue length does an incoming req see
system.mem_ctrls0.rdQLenPdf::6                      0                       # What read queue length does an incoming req see
system.mem_ctrls0.rdQLenPdf::7                      0                       # What read queue length does an incoming req see
system.mem_ctrls0.rdQLenPdf::8                      0                       # What read queue length does an incoming req see
system.mem_ctrls0.rdQLenPdf::9                      0                       # What read queue length does an incoming req see
system.mem_ctrls0.rdQLenPdf::10                     0                       # What read queue length does an incoming req see
system.mem_ctrls0.rdQLenPdf::11                     0                       # What read queue length does an incoming req see
system.mem_ctrls0.rdQLenPdf::12                     0                       # What read queue length does an incoming req see
system.mem_ctrls0.rdQLenPdf::13                     0                       # What read queue length does an incoming req see
system.mem_ctrls0.rdQLenPdf::14                     0                       # What read queue length does an incoming req see
system.mem_ctrls0.rdQLenPdf::15                     0                       # What read queue length does an incoming req see
system.mem_ctrls0.rdQLenPdf::16                     0                       # What read queue length does an incoming req see
system.mem_ctrls0.rdQLenPdf::17                     0                       # What read queue length does an incoming req see
system.mem_ctrls0.rdQLenPdf::18                     0                       # What read queue length does an incoming req see
system.mem_ctrls0.rdQLenPdf::19                     0                       # What read queue length does an incoming req see
system.mem_ctrls0.rdQLenPdf::20                     0                       # What read queue length does an incoming req see
system.mem_ctrls0.rdQLenPdf::21                     0                       # What read queue length does an incoming req see
system.mem_ctrls0.rdQLenPdf::22                     0                       # What read queue length does an incoming req see
system.mem_ctrls0.rdQLenPdf::23                     0                       # What read queue length does an incoming req see
system.mem_ctrls0.rdQLenPdf::24                     0                       # What read queue length does an incoming req see
system.mem_ctrls0.rdQLenPdf::25                     0                       # What read queue length does an incoming req see
system.mem_ctrls0.rdQLenPdf::26                     0                       # What read queue length does an incoming req see
system.mem_ctrls0.rdQLenPdf::27                     0                       # What read queue length does an incoming req see
system.mem_ctrls0.rdQLenPdf::28                     0                       # What read queue length does an incoming req see
system.mem_ctrls0.rdQLenPdf::29                     0                       # What read queue length does an incoming req see
system.mem_ctrls0.rdQLenPdf::30                     0                       # What read queue length does an incoming req see
system.mem_ctrls0.rdQLenPdf::31                     0                       # What read queue length does an incoming req see
system.mem_ctrls0.wrQLenPdf::0                      2                       # What write queue length does an incoming req see
system.mem_ctrls0.wrQLenPdf::1                      2                       # What write queue length does an incoming req see
system.mem_ctrls0.wrQLenPdf::2                      2                       # What write queue length does an incoming req see
system.mem_ctrls0.wrQLenPdf::3                      2                       # What write queue length does an incoming req see
system.mem_ctrls0.wrQLenPdf::4                      2                       # What write queue length does an incoming req see
system.mem_ctrls0.wrQLenPdf::5                      2                       # What write queue length does an incoming req see
system.mem_ctrls0.wrQLenPdf::6                      2                       # What write queue length does an incoming req see
system.mem_ctrls0.wrQLenPdf::7                      2                       # What write queue length does an incoming req see
system.mem_ctrls0.wrQLenPdf::8                      2                       # What write queue length does an incoming req see
system.mem_ctrls0.wrQLenPdf::9                      2                       # What write queue length does an incoming req see
system.mem_ctrls0.wrQLenPdf::10                     2                       # What write queue length does an incoming req see
system.mem_ctrls0.wrQLenPdf::11                     2                       # What write queue length does an incoming req see
system.mem_ctrls0.wrQLenPdf::12                     2                       # What write queue length does an incoming req see
system.mem_ctrls0.wrQLenPdf::13                     2                       # What write queue length does an incoming req see
system.mem_ctrls0.wrQLenPdf::14                     2                       # What write queue length does an incoming req see
system.mem_ctrls0.wrQLenPdf::15                   379                       # What write queue length does an incoming req see
system.mem_ctrls0.wrQLenPdf::16                   381                       # What write queue length does an incoming req see
system.mem_ctrls0.wrQLenPdf::17                   405                       # What write queue length does an incoming req see
system.mem_ctrls0.wrQLenPdf::18                   408                       # What write queue length does an incoming req see
system.mem_ctrls0.wrQLenPdf::19                   407                       # What write queue length does an incoming req see
system.mem_ctrls0.wrQLenPdf::20                   406                       # What write queue length does an incoming req see
system.mem_ctrls0.wrQLenPdf::21                   405                       # What write queue length does an incoming req see
system.mem_ctrls0.wrQLenPdf::22                   406                       # What write queue length does an incoming req see
system.mem_ctrls0.wrQLenPdf::23                   407                       # What write queue length does an incoming req see
system.mem_ctrls0.wrQLenPdf::24                   406                       # What write queue length does an incoming req see
system.mem_ctrls0.wrQLenPdf::25                   404                       # What write queue length does an incoming req see
system.mem_ctrls0.wrQLenPdf::26                   404                       # What write queue length does an incoming req see
system.mem_ctrls0.wrQLenPdf::27                   405                       # What write queue length does an incoming req see
system.mem_ctrls0.wrQLenPdf::28                   404                       # What write queue length does an incoming req see
system.mem_ctrls0.wrQLenPdf::29                   405                       # What write queue length does an incoming req see
system.mem_ctrls0.wrQLenPdf::30                   405                       # What write queue length does an incoming req see
system.mem_ctrls0.wrQLenPdf::31                   404                       # What write queue length does an incoming req see
system.mem_ctrls0.wrQLenPdf::32                   404                       # What write queue length does an incoming req see
system.mem_ctrls0.wrQLenPdf::33                     6                       # What write queue length does an incoming req see
system.mem_ctrls0.wrQLenPdf::34                     0                       # What write queue length does an incoming req see
system.mem_ctrls0.wrQLenPdf::35                     0                       # What write queue length does an incoming req see
system.mem_ctrls0.wrQLenPdf::36                     0                       # What write queue length does an incoming req see
system.mem_ctrls0.wrQLenPdf::37                     0                       # What write queue length does an incoming req see
system.mem_ctrls0.wrQLenPdf::38                     0                       # What write queue length does an incoming req see
system.mem_ctrls0.wrQLenPdf::39                     0                       # What write queue length does an incoming req see
system.mem_ctrls0.wrQLenPdf::40                     0                       # What write queue length does an incoming req see
system.mem_ctrls0.wrQLenPdf::41                     0                       # What write queue length does an incoming req see
system.mem_ctrls0.wrQLenPdf::42                     0                       # What write queue length does an incoming req see
system.mem_ctrls0.wrQLenPdf::43                     0                       # What write queue length does an incoming req see
system.mem_ctrls0.wrQLenPdf::44                     0                       # What write queue length does an incoming req see
system.mem_ctrls0.wrQLenPdf::45                     0                       # What write queue length does an incoming req see
system.mem_ctrls0.wrQLenPdf::46                     0                       # What write queue length does an incoming req see
system.mem_ctrls0.wrQLenPdf::47                     0                       # What write queue length does an incoming req see
system.mem_ctrls0.wrQLenPdf::48                     0                       # What write queue length does an incoming req see
system.mem_ctrls0.wrQLenPdf::49                     0                       # What write queue length does an incoming req see
system.mem_ctrls0.wrQLenPdf::50                     0                       # What write queue length does an incoming req see
system.mem_ctrls0.wrQLenPdf::51                     0                       # What write queue length does an incoming req see
system.mem_ctrls0.wrQLenPdf::52                     0                       # What write queue length does an incoming req see
system.mem_ctrls0.wrQLenPdf::53                     0                       # What write queue length does an incoming req see
system.mem_ctrls0.wrQLenPdf::54                     0                       # What write queue length does an incoming req see
system.mem_ctrls0.wrQLenPdf::55                     0                       # What write queue length does an incoming req see
system.mem_ctrls0.wrQLenPdf::56                     0                       # What write queue length does an incoming req see
system.mem_ctrls0.wrQLenPdf::57                     0                       # What write queue length does an incoming req see
system.mem_ctrls0.wrQLenPdf::58                     0                       # What write queue length does an incoming req see
system.mem_ctrls0.wrQLenPdf::59                     0                       # What write queue length does an incoming req see
system.mem_ctrls0.wrQLenPdf::60                     0                       # What write queue length does an incoming req see
system.mem_ctrls0.wrQLenPdf::61                     0                       # What write queue length does an incoming req see
system.mem_ctrls0.wrQLenPdf::62                     0                       # What write queue length does an incoming req see
system.mem_ctrls0.wrQLenPdf::63                     0                       # What write queue length does an incoming req see
system.mem_ctrls0.bytesPerActivate::samples        23975                       # Bytes accessed per row activation
system.mem_ctrls0.bytesPerActivate::mean   141.787696                       # Bytes accessed per row activation
system.mem_ctrls0.bytesPerActivate::gmean   104.318720                       # Bytes accessed per row activation
system.mem_ctrls0.bytesPerActivate::stdev   154.157399                       # Bytes accessed per row activation
system.mem_ctrls0.bytesPerActivate::0-127        13982     58.32%     58.32% # Bytes accessed per row activation
system.mem_ctrls0.bytesPerActivate::128-255         6747     28.14%     86.46% # Bytes accessed per row activation
system.mem_ctrls0.bytesPerActivate::256-383         1304      5.44%     91.90% # Bytes accessed per row activation
system.mem_ctrls0.bytesPerActivate::384-511          892      3.72%     95.62% # Bytes accessed per row activation
system.mem_ctrls0.bytesPerActivate::512-639          205      0.86%     96.48% # Bytes accessed per row activation
system.mem_ctrls0.bytesPerActivate::640-767          199      0.83%     97.31% # Bytes accessed per row activation
system.mem_ctrls0.bytesPerActivate::768-895          401      1.67%     98.98% # Bytes accessed per row activation
system.mem_ctrls0.bytesPerActivate::896-1023          244      1.02%    100.00% # Bytes accessed per row activation
system.mem_ctrls0.bytesPerActivate::1024-1151            1      0.00%    100.00% # Bytes accessed per row activation
system.mem_ctrls0.bytesPerActivate::total        23975                       # Bytes accessed per row activation
system.mem_ctrls0.rdPerTurnAround::samples          405                       # Reads before turning the bus around for writes
system.mem_ctrls0.rdPerTurnAround::mean    113.217284                       # Reads before turning the bus around for writes
system.mem_ctrls0.rdPerTurnAround::stdev  1377.610448                       # Reads before turning the bus around for writes
system.mem_ctrls0.rdPerTurnAround::0-1023          404     99.75%     99.75% # Reads before turning the bus around for writes
system.mem_ctrls0.rdPerTurnAround::27648-28671            1      0.25%    100.00% # Reads before turning the bus around for writes
system.mem_ctrls0.rdPerTurnAround::total          405                       # Reads before turning the bus around for writes
system.mem_ctrls0.wrPerTurnAround::samples          405                       # Writes before turning the bus around for reads
system.mem_ctrls0.wrPerTurnAround::mean     17.918519                       # Writes before turning the bus around for reads
system.mem_ctrls0.wrPerTurnAround::gmean    17.909519                       # Writes before turning the bus around for reads
system.mem_ctrls0.wrPerTurnAround::stdev     0.554708                       # Writes before turning the bus around for reads
system.mem_ctrls0.wrPerTurnAround::16              26      6.42%      6.42% # Writes before turning the bus around for reads
system.mem_ctrls0.wrPerTurnAround::17               1      0.25%      6.67% # Writes before turning the bus around for reads
system.mem_ctrls0.wrPerTurnAround::18             359     88.64%     95.31% # Writes before turning the bus around for reads
system.mem_ctrls0.wrPerTurnAround::19              18      4.44%     99.75% # Writes before turning the bus around for reads
system.mem_ctrls0.wrPerTurnAround::20               1      0.25%    100.00% # Writes before turning the bus around for reads
system.mem_ctrls0.wrPerTurnAround::total          405                       # Writes before turning the bus around for reads
system.mem_ctrls0.totQLat                  4214409009                       # Total ticks spent queuing
system.mem_ctrls0.totMemAccLat             5074246509                       # Total ticks spent from burst creation until serviced by the DRAM
system.mem_ctrls0.totBusLat                 229290000                       # Total ticks spent in databus transfers
system.mem_ctrls0.avgQLat                    91901.28                       # Average queueing delay per DRAM burst
system.mem_ctrls0.avgBusLat                   5000.00                       # Average bus latency per DRAM burst
system.mem_ctrls0.avgMemAccLat              110651.28                       # Average memory access latency per DRAM burst
system.mem_ctrls0.avgRdBW                        2.77                       # Average DRAM read bandwidth in MiByte/s
system.mem_ctrls0.avgWrBW                        0.44                       # Average achieved write bandwidth in MiByte/s
system.mem_ctrls0.avgRdBWSys                     2.81                       # Average system read bandwidth in MiByte/s
system.mem_ctrls0.avgWrBWSys                     0.44                       # Average system write bandwidth in MiByte/s
system.mem_ctrls0.peakBW                     12800.00                       # Theoretical peak bandwidth in MiByte/s
system.mem_ctrls0.busUtil                        0.03                       # Data bus utilization in percentage
system.mem_ctrls0.busUtilRead                    0.02                       # Data bus utilization in percentage for reads
system.mem_ctrls0.busUtilWrite                   0.00                       # Data bus utilization in percentage for writes
system.mem_ctrls0.avgRdQLen                      1.00                       # Average read queue length when enqueuing
system.mem_ctrls0.avgWrQLen                     13.75                       # Average write queue length when enqueuing
system.mem_ctrls0.readRowHits                   27790                       # Number of row buffer hits during reads
system.mem_ctrls0.writeRowHits                   1350                       # Number of row buffer hits during writes
system.mem_ctrls0.readRowHitRate                60.60                       # Row buffer hit rate for reads
system.mem_ctrls0.writeRowHitRate               18.54                       # Row buffer hit rate for writes
system.mem_ctrls0.avgGap                  19683048.47                       # Average gap between requests
system.mem_ctrls0.pageHitRate                   54.84                       # Row buffer hit rate, read and write combined
system.mem_ctrls0_0.actEnergy                79089780                       # Energy for activate commands per rank (pJ)
system.mem_ctrls0_0.preEnergy                42037215                       # Energy for precharge commands per rank (pJ)
system.mem_ctrls0_0.readEnergy              157658340                       # Energy for read commands per rank (pJ)
system.mem_ctrls0_0.writeEnergy              18035100                       # Energy for write commands per rank (pJ)
system.mem_ctrls0_0.refreshEnergy        7504754400.000002                       # Energy for refresh commands per rank (pJ)
system.mem_ctrls0_0.actBackEnergy          2424008220                       # Energy for active background per rank (pJ)
system.mem_ctrls0_0.preBackEnergy           448954560                       # Energy for precharge background per rank (pJ)
system.mem_ctrls0_0.actPowerDownEnergy    16042175190                       # Energy for active power-down per rank (pJ)
system.mem_ctrls0_0.prePowerDownEnergy    11327405760                       # Energy for precharge power-down per rank (pJ)
system.mem_ctrls0_0.selfRefreshEnergy    239458126470                       # Energy for self refresh per rank (pJ)
system.mem_ctrls0_0.totalEnergy          277503454005                       # Total energy per rank (pJ)
system.mem_ctrls0_0.averagePower           261.470790                       # Core power per rank (mW)
system.mem_ctrls0_0.totalIdleTime        1054799207820                       # Total Idle time Per DRAM Rank
system.mem_ctrls0_0.memoryStateTime::IDLE    906126584                       # Time in different power states
system.mem_ctrls0_0.memoryStateTime::REF   3194568000                       # Time in different power states
system.mem_ctrls0_0.memoryStateTime::SREF 990150923143                       # Time in different power states
system.mem_ctrls0_0.memoryStateTime::PRE_PDN  29498447797                       # Time in different power states
system.mem_ctrls0_0.memoryStateTime::ACT   2386925886                       # Time in different power states
system.mem_ctrls0_0.memoryStateTime::ACT_PDN  35180235983                       # Time in different power states
system.mem_ctrls0_1.actEnergy                92091720                       # Energy for activate commands per rank (pJ)
system.mem_ctrls0_1.preEnergy                48947910                       # Energy for precharge commands per rank (pJ)
system.mem_ctrls0_1.readEnergy              169767780                       # Energy for read commands per rank (pJ)
system.mem_ctrls0_1.writeEnergy              19846440                       # Energy for write commands per rank (pJ)
system.mem_ctrls0_1.refreshEnergy        8837908560.000002                       # Energy for refresh commands per rank (pJ)
system.mem_ctrls0_1.actBackEnergy          2723964450                       # Energy for active background per rank (pJ)
system.mem_ctrls0_1.preBackEnergy           529416960                       # Energy for precharge background per rank (pJ)
system.mem_ctrls0_1.actPowerDownEnergy    18885718800                       # Energy for active power-down per rank (pJ)
system.mem_ctrls0_1.prePowerDownEnergy    13522097760                       # Energy for precharge power-down per rank (pJ)
system.mem_ctrls0_1.selfRefreshEnergy    236691955290                       # Energy for self refresh per rank (pJ)
system.mem_ctrls0_1.totalEnergy          281524052070                       # Total energy per rank (pJ)
system.mem_ctrls0_1.averagePower           265.259100                       # Core power per rank (mW)
system.mem_ctrls0_1.totalIdleTime        1053926685540                       # Total Idle time Per DRAM Rank
system.mem_ctrls0_1.memoryStateTime::IDLE   1070680097                       # Time in different power states
system.mem_ctrls0_1.memoryStateTime::REF   3761946000                       # Time in different power states
system.mem_ctrls0_1.memoryStateTime::SREF 977329937143                       # Time in different power states
system.mem_ctrls0_1.memoryStateTime::PRE_PDN  35213900542                       # Time in different power states
system.mem_ctrls0_1.memoryStateTime::ACT   2524761901                       # Time in different power states
system.mem_ctrls0_1.memoryStateTime::ACT_PDN  41416001710                       # Time in different power states
system.mem_ctrls1.pwrStateResidencyTicks::UNDEFINED 176612601349260                       # Cumulative time (in ticks) in various power states
system.mem_ctrls1.bytes_read::cpu.inst            192                       # Number of bytes read from this memory
system.mem_ctrls1.bytes_read::cpu.data            128                       # Number of bytes read from this memory
system.mem_ctrls1.bytes_read::switch_cpus.inst        47616                       # Number of bytes read from this memory
system.mem_ctrls1.bytes_read::switch_cpus.data      2472064                       # Number of bytes read from this memory
system.mem_ctrls1.bytes_read::switch_cpus_1.inst        12672                       # Number of bytes read from this memory
system.mem_ctrls1.bytes_read::switch_cpus_1.data       472064                       # Number of bytes read from this memory
system.mem_ctrls1.bytes_read::total           3004736                       # Number of bytes read from this memory
system.mem_ctrls1.bytes_inst_read::cpu.inst          192                       # Number of instructions bytes read from this memory
system.mem_ctrls1.bytes_inst_read::switch_cpus.inst        47616                       # Number of instructions bytes read from this memory
system.mem_ctrls1.bytes_inst_read::switch_cpus_1.inst        12672                       # Number of instructions bytes read from this memory
system.mem_ctrls1.bytes_inst_read::total        60480                       # Number of instructions bytes read from this memory
system.mem_ctrls1.bytes_written::writebacks       487040                       # Number of bytes written to this memory
system.mem_ctrls1.bytes_written::total         487040                       # Number of bytes written to this memory
system.mem_ctrls1.num_reads::cpu.inst               3                       # Number of read requests responded to by this memory
system.mem_ctrls1.num_reads::cpu.data               2                       # Number of read requests responded to by this memory
system.mem_ctrls1.num_reads::switch_cpus.inst          744                       # Number of read requests responded to by this memory
system.mem_ctrls1.num_reads::switch_cpus.data        38626                       # Number of read requests responded to by this memory
system.mem_ctrls1.num_reads::switch_cpus_1.inst          198                       # Number of read requests responded to by this memory
system.mem_ctrls1.num_reads::switch_cpus_1.data         7376                       # Number of read requests responded to by this memory
system.mem_ctrls1.num_reads::total              46949                       # Number of read requests responded to by this memory
system.mem_ctrls1.num_writes::writebacks         7610                       # Number of write requests responded to by this memory
system.mem_ctrls1.num_writes::total              7610                       # Number of write requests responded to by this memory
system.mem_ctrls1.bw_read::cpu.inst               181                       # Total read bandwidth from this memory (bytes/s)
system.mem_ctrls1.bw_read::cpu.data               121                       # Total read bandwidth from this memory (bytes/s)
system.mem_ctrls1.bw_read::switch_cpus.inst        44865                       # Total read bandwidth from this memory (bytes/s)
system.mem_ctrls1.bw_read::switch_cpus.data      2329241                       # Total read bandwidth from this memory (bytes/s)
system.mem_ctrls1.bw_read::switch_cpus_1.inst        11940                       # Total read bandwidth from this memory (bytes/s)
system.mem_ctrls1.bw_read::switch_cpus_1.data       444791                       # Total read bandwidth from this memory (bytes/s)
system.mem_ctrls1.bw_read::total              2831138                       # Total read bandwidth from this memory (bytes/s)
system.mem_ctrls1.bw_inst_read::cpu.inst          181                       # Instruction read bandwidth from this memory (bytes/s)
system.mem_ctrls1.bw_inst_read::switch_cpus.inst        44865                       # Instruction read bandwidth from this memory (bytes/s)
system.mem_ctrls1.bw_inst_read::switch_cpus_1.inst        11940                       # Instruction read bandwidth from this memory (bytes/s)
system.mem_ctrls1.bw_inst_read::total           56986                       # Instruction read bandwidth from this memory (bytes/s)
system.mem_ctrls1.bw_write::writebacks         458901                       # Write bandwidth from this memory (bytes/s)
system.mem_ctrls1.bw_write::total              458901                       # Write bandwidth from this memory (bytes/s)
system.mem_ctrls1.bw_total::writebacks         458901                       # Total bandwidth to/from this memory (bytes/s)
system.mem_ctrls1.bw_total::cpu.inst              181                       # Total bandwidth to/from this memory (bytes/s)
system.mem_ctrls1.bw_total::cpu.data              121                       # Total bandwidth to/from this memory (bytes/s)
system.mem_ctrls1.bw_total::switch_cpus.inst        44865                       # Total bandwidth to/from this memory (bytes/s)
system.mem_ctrls1.bw_total::switch_cpus.data      2329241                       # Total bandwidth to/from this memory (bytes/s)
system.mem_ctrls1.bw_total::switch_cpus_1.inst        11940                       # Total bandwidth to/from this memory (bytes/s)
system.mem_ctrls1.bw_total::switch_cpus_1.data       444791                       # Total bandwidth to/from this memory (bytes/s)
system.mem_ctrls1.bw_total::total             3290040                       # Total bandwidth to/from this memory (bytes/s)
system.mem_ctrls1.readReqs                      46949                       # Number of read requests accepted
system.mem_ctrls1.writeReqs                      7610                       # Number of write requests accepted
system.mem_ctrls1.readBursts                    46949                       # Number of DRAM read bursts, including those serviced by the write queue
system.mem_ctrls1.writeBursts                    7610                       # Number of DRAM write bursts, including those merged in the write queue
system.mem_ctrls1.bytesReadDRAM               2953920                       # Total number of bytes read from DRAM
system.mem_ctrls1.bytesReadWrQ                  50816                       # Total number of bytes read from write queue
system.mem_ctrls1.bytesWritten                 485120                       # Total number of bytes written to DRAM
system.mem_ctrls1.bytesReadSys                3004736                       # Total read bytes from the system interface side
system.mem_ctrls1.bytesWrittenSys              487040                       # Total written bytes from the system interface side
system.mem_ctrls1.servicedByWrQ                   794                       # Number of DRAM read bursts serviced by the write queue
system.mem_ctrls1.mergedWrBursts                    4                       # Number of DRAM write bursts merged with an existing one
system.mem_ctrls1.neitherReadNorWriteReqs            0                       # Number of requests that are neither read nor write
system.mem_ctrls1.perBankRdBursts::0             2992                       # Per bank write bursts
system.mem_ctrls1.perBankRdBursts::1             2437                       # Per bank write bursts
system.mem_ctrls1.perBankRdBursts::2             2569                       # Per bank write bursts
system.mem_ctrls1.perBankRdBursts::3             2773                       # Per bank write bursts
system.mem_ctrls1.perBankRdBursts::4             2573                       # Per bank write bursts
system.mem_ctrls1.perBankRdBursts::5             2609                       # Per bank write bursts
system.mem_ctrls1.perBankRdBursts::6             3273                       # Per bank write bursts
system.mem_ctrls1.perBankRdBursts::7             2919                       # Per bank write bursts
system.mem_ctrls1.perBankRdBursts::8             3034                       # Per bank write bursts
system.mem_ctrls1.perBankRdBursts::9             2856                       # Per bank write bursts
system.mem_ctrls1.perBankRdBursts::10            2961                       # Per bank write bursts
system.mem_ctrls1.perBankRdBursts::11            2788                       # Per bank write bursts
system.mem_ctrls1.perBankRdBursts::12            2974                       # Per bank write bursts
system.mem_ctrls1.perBankRdBursts::13            2784                       # Per bank write bursts
system.mem_ctrls1.perBankRdBursts::14            3695                       # Per bank write bursts
system.mem_ctrls1.perBankRdBursts::15            2918                       # Per bank write bursts
system.mem_ctrls1.perBankWrBursts::0              567                       # Per bank write bursts
system.mem_ctrls1.perBankWrBursts::1              261                       # Per bank write bursts
system.mem_ctrls1.perBankWrBursts::2              338                       # Per bank write bursts
system.mem_ctrls1.perBankWrBursts::3              328                       # Per bank write bursts
system.mem_ctrls1.perBankWrBursts::4              394                       # Per bank write bursts
system.mem_ctrls1.perBankWrBursts::5              242                       # Per bank write bursts
system.mem_ctrls1.perBankWrBursts::6              856                       # Per bank write bursts
system.mem_ctrls1.perBankWrBursts::7              510                       # Per bank write bursts
system.mem_ctrls1.perBankWrBursts::8              610                       # Per bank write bursts
system.mem_ctrls1.perBankWrBursts::9              312                       # Per bank write bursts
system.mem_ctrls1.perBankWrBursts::10             387                       # Per bank write bursts
system.mem_ctrls1.perBankWrBursts::11             402                       # Per bank write bursts
system.mem_ctrls1.perBankWrBursts::12             461                       # Per bank write bursts
system.mem_ctrls1.perBankWrBursts::13             342                       # Per bank write bursts
system.mem_ctrls1.perBankWrBursts::14            1081                       # Per bank write bursts
system.mem_ctrls1.perBankWrBursts::15             489                       # Per bank write bursts
system.mem_ctrls1.numRdRetry                        0                       # Number of times read queue was full causing retry
system.mem_ctrls1.numWrRetry                        0                       # Number of times write queue was full causing retry
system.mem_ctrls1.totGap                 1061297721252                       # Total gap between requests
system.mem_ctrls1.readPktSize::0                    0                       # Read request sizes (log2)
system.mem_ctrls1.readPktSize::1                    0                       # Read request sizes (log2)
system.mem_ctrls1.readPktSize::2                    0                       # Read request sizes (log2)
system.mem_ctrls1.readPktSize::3                    0                       # Read request sizes (log2)
system.mem_ctrls1.readPktSize::4                    0                       # Read request sizes (log2)
system.mem_ctrls1.readPktSize::5                    0                       # Read request sizes (log2)
system.mem_ctrls1.readPktSize::6                46949                       # Read request sizes (log2)
system.mem_ctrls1.writePktSize::0                   0                       # Write request sizes (log2)
system.mem_ctrls1.writePktSize::1                   0                       # Write request sizes (log2)
system.mem_ctrls1.writePktSize::2                   0                       # Write request sizes (log2)
system.mem_ctrls1.writePktSize::3                   0                       # Write request sizes (log2)
system.mem_ctrls1.writePktSize::4                   0                       # Write request sizes (log2)
system.mem_ctrls1.writePktSize::5                   0                       # Write request sizes (log2)
system.mem_ctrls1.writePktSize::6                7610                       # Write request sizes (log2)
system.mem_ctrls1.rdQLenPdf::0                  45940                       # What read queue length does an incoming req see
system.mem_ctrls1.rdQLenPdf::1                    211                       # What read queue length does an incoming req see
system.mem_ctrls1.rdQLenPdf::2                      4                       # What read queue length does an incoming req see
system.mem_ctrls1.rdQLenPdf::3                      0                       # What read queue length does an incoming req see
system.mem_ctrls1.rdQLenPdf::4                      0                       # What read queue length does an incoming req see
system.mem_ctrls1.rdQLenPdf::5                      0                       # What read queue length does an incoming req see
system.mem_ctrls1.rdQLenPdf::6                      0                       # What read queue length does an incoming req see
system.mem_ctrls1.rdQLenPdf::7                      0                       # What read queue length does an incoming req see
system.mem_ctrls1.rdQLenPdf::8                      0                       # What read queue length does an incoming req see
system.mem_ctrls1.rdQLenPdf::9                      0                       # What read queue length does an incoming req see
system.mem_ctrls1.rdQLenPdf::10                     0                       # What read queue length does an incoming req see
system.mem_ctrls1.rdQLenPdf::11                     0                       # What read queue length does an incoming req see
system.mem_ctrls1.rdQLenPdf::12                     0                       # What read queue length does an incoming req see
system.mem_ctrls1.rdQLenPdf::13                     0                       # What read queue length does an incoming req see
system.mem_ctrls1.rdQLenPdf::14                     0                       # What read queue length does an incoming req see
system.mem_ctrls1.rdQLenPdf::15                     0                       # What read queue length does an incoming req see
system.mem_ctrls1.rdQLenPdf::16                     0                       # What read queue length does an incoming req see
system.mem_ctrls1.rdQLenPdf::17                     0                       # What read queue length does an incoming req see
system.mem_ctrls1.rdQLenPdf::18                     0                       # What read queue length does an incoming req see
system.mem_ctrls1.rdQLenPdf::19                     0                       # What read queue length does an incoming req see
system.mem_ctrls1.rdQLenPdf::20                     0                       # What read queue length does an incoming req see
system.mem_ctrls1.rdQLenPdf::21                     0                       # What read queue length does an incoming req see
system.mem_ctrls1.rdQLenPdf::22                     0                       # What read queue length does an incoming req see
system.mem_ctrls1.rdQLenPdf::23                     0                       # What read queue length does an incoming req see
system.mem_ctrls1.rdQLenPdf::24                     0                       # What read queue length does an incoming req see
system.mem_ctrls1.rdQLenPdf::25                     0                       # What read queue length does an incoming req see
system.mem_ctrls1.rdQLenPdf::26                     0                       # What read queue length does an incoming req see
system.mem_ctrls1.rdQLenPdf::27                     0                       # What read queue length does an incoming req see
system.mem_ctrls1.rdQLenPdf::28                     0                       # What read queue length does an incoming req see
system.mem_ctrls1.rdQLenPdf::29                     0                       # What read queue length does an incoming req see
system.mem_ctrls1.rdQLenPdf::30                     0                       # What read queue length does an incoming req see
system.mem_ctrls1.rdQLenPdf::31                     0                       # What read queue length does an incoming req see
system.mem_ctrls1.wrQLenPdf::0                      2                       # What write queue length does an incoming req see
system.mem_ctrls1.wrQLenPdf::1                      2                       # What write queue length does an incoming req see
system.mem_ctrls1.wrQLenPdf::2                      2                       # What write queue length does an incoming req see
system.mem_ctrls1.wrQLenPdf::3                      2                       # What write queue length does an incoming req see
system.mem_ctrls1.wrQLenPdf::4                      2                       # What write queue length does an incoming req see
system.mem_ctrls1.wrQLenPdf::5                      2                       # What write queue length does an incoming req see
system.mem_ctrls1.wrQLenPdf::6                      2                       # What write queue length does an incoming req see
system.mem_ctrls1.wrQLenPdf::7                      2                       # What write queue length does an incoming req see
system.mem_ctrls1.wrQLenPdf::8                      2                       # What write queue length does an incoming req see
system.mem_ctrls1.wrQLenPdf::9                      2                       # What write queue length does an incoming req see
system.mem_ctrls1.wrQLenPdf::10                     2                       # What write queue length does an incoming req see
system.mem_ctrls1.wrQLenPdf::11                     2                       # What write queue length does an incoming req see
system.mem_ctrls1.wrQLenPdf::12                     2                       # What write queue length does an incoming req see
system.mem_ctrls1.wrQLenPdf::13                     2                       # What write queue length does an incoming req see
system.mem_ctrls1.wrQLenPdf::14                     2                       # What write queue length does an incoming req see
system.mem_ctrls1.wrQLenPdf::15                   398                       # What write queue length does an incoming req see
system.mem_ctrls1.wrQLenPdf::16                   399                       # What write queue length does an incoming req see
system.mem_ctrls1.wrQLenPdf::17                   424                       # What write queue length does an incoming req see
system.mem_ctrls1.wrQLenPdf::18                   424                       # What write queue length does an incoming req see
system.mem_ctrls1.wrQLenPdf::19                   424                       # What write queue length does an incoming req see
system.mem_ctrls1.wrQLenPdf::20                   427                       # What write queue length does an incoming req see
system.mem_ctrls1.wrQLenPdf::21                   424                       # What write queue length does an incoming req see
system.mem_ctrls1.wrQLenPdf::22                   423                       # What write queue length does an incoming req see
system.mem_ctrls1.wrQLenPdf::23                   424                       # What write queue length does an incoming req see
system.mem_ctrls1.wrQLenPdf::24                   425                       # What write queue length does an incoming req see
system.mem_ctrls1.wrQLenPdf::25                   424                       # What write queue length does an incoming req see
system.mem_ctrls1.wrQLenPdf::26                   424                       # What write queue length does an incoming req see
system.mem_ctrls1.wrQLenPdf::27                   422                       # What write queue length does an incoming req see
system.mem_ctrls1.wrQLenPdf::28                   423                       # What write queue length does an incoming req see
system.mem_ctrls1.wrQLenPdf::29                   422                       # What write queue length does an incoming req see
system.mem_ctrls1.wrQLenPdf::30                   422                       # What write queue length does an incoming req see
system.mem_ctrls1.wrQLenPdf::31                   422                       # What write queue length does an incoming req see
system.mem_ctrls1.wrQLenPdf::32                   422                       # What write queue length does an incoming req see
system.mem_ctrls1.wrQLenPdf::33                     3                       # What write queue length does an incoming req see
system.mem_ctrls1.wrQLenPdf::34                     0                       # What write queue length does an incoming req see
system.mem_ctrls1.wrQLenPdf::35                     0                       # What write queue length does an incoming req see
system.mem_ctrls1.wrQLenPdf::36                     0                       # What write queue length does an incoming req see
system.mem_ctrls1.wrQLenPdf::37                     0                       # What write queue length does an incoming req see
system.mem_ctrls1.wrQLenPdf::38                     0                       # What write queue length does an incoming req see
system.mem_ctrls1.wrQLenPdf::39                     0                       # What write queue length does an incoming req see
system.mem_ctrls1.wrQLenPdf::40                     0                       # What write queue length does an incoming req see
system.mem_ctrls1.wrQLenPdf::41                     0                       # What write queue length does an incoming req see
system.mem_ctrls1.wrQLenPdf::42                     0                       # What write queue length does an incoming req see
system.mem_ctrls1.wrQLenPdf::43                     0                       # What write queue length does an incoming req see
system.mem_ctrls1.wrQLenPdf::44                     0                       # What write queue length does an incoming req see
system.mem_ctrls1.wrQLenPdf::45                     0                       # What write queue length does an incoming req see
system.mem_ctrls1.wrQLenPdf::46                     0                       # What write queue length does an incoming req see
system.mem_ctrls1.wrQLenPdf::47                     0                       # What write queue length does an incoming req see
system.mem_ctrls1.wrQLenPdf::48                     0                       # What write queue length does an incoming req see
system.mem_ctrls1.wrQLenPdf::49                     0                       # What write queue length does an incoming req see
system.mem_ctrls1.wrQLenPdf::50                     0                       # What write queue length does an incoming req see
system.mem_ctrls1.wrQLenPdf::51                     0                       # What write queue length does an incoming req see
system.mem_ctrls1.wrQLenPdf::52                     0                       # What write queue length does an incoming req see
system.mem_ctrls1.wrQLenPdf::53                     0                       # What write queue length does an incoming req see
system.mem_ctrls1.wrQLenPdf::54                     0                       # What write queue length does an incoming req see
system.mem_ctrls1.wrQLenPdf::55                     0                       # What write queue length does an incoming req see
system.mem_ctrls1.wrQLenPdf::56                     0                       # What write queue length does an incoming req see
system.mem_ctrls1.wrQLenPdf::57                     0                       # What write queue length does an incoming req see
system.mem_ctrls1.wrQLenPdf::58                     0                       # What write queue length does an incoming req see
system.mem_ctrls1.wrQLenPdf::59                     0                       # What write queue length does an incoming req see
system.mem_ctrls1.wrQLenPdf::60                     0                       # What write queue length does an incoming req see
system.mem_ctrls1.wrQLenPdf::61                     0                       # What write queue length does an incoming req see
system.mem_ctrls1.wrQLenPdf::62                     0                       # What write queue length does an incoming req see
system.mem_ctrls1.wrQLenPdf::63                     0                       # What write queue length does an incoming req see
system.mem_ctrls1.bytesPerActivate::samples        24233                       # Bytes accessed per row activation
system.mem_ctrls1.bytesPerActivate::mean   141.915570                       # Bytes accessed per row activation
system.mem_ctrls1.bytesPerActivate::gmean   104.413284                       # Bytes accessed per row activation
system.mem_ctrls1.bytesPerActivate::stdev   154.025863                       # Bytes accessed per row activation
system.mem_ctrls1.bytesPerActivate::64-127        14126     58.29%     58.29% # Bytes accessed per row activation
system.mem_ctrls1.bytesPerActivate::128-191         4352     17.96%     76.25% # Bytes accessed per row activation
system.mem_ctrls1.bytesPerActivate::192-255         2473     10.21%     86.46% # Bytes accessed per row activation
system.mem_ctrls1.bytesPerActivate::256-319          950      3.92%     90.38% # Bytes accessed per row activation
system.mem_ctrls1.bytesPerActivate::320-383          358      1.48%     91.85% # Bytes accessed per row activation
system.mem_ctrls1.bytesPerActivate::384-447          812      3.35%     95.20% # Bytes accessed per row activation
system.mem_ctrls1.bytesPerActivate::448-511          112      0.46%     95.67% # Bytes accessed per row activation
system.mem_ctrls1.bytesPerActivate::512-575          122      0.50%     96.17% # Bytes accessed per row activation
system.mem_ctrls1.bytesPerActivate::576-639           69      0.28%     96.46% # Bytes accessed per row activation
system.mem_ctrls1.bytesPerActivate::640-703          112      0.46%     96.92% # Bytes accessed per row activation
system.mem_ctrls1.bytesPerActivate::704-767          102      0.42%     97.34% # Bytes accessed per row activation
system.mem_ctrls1.bytesPerActivate::768-831          233      0.96%     98.30% # Bytes accessed per row activation
system.mem_ctrls1.bytesPerActivate::832-895          164      0.68%     98.98% # Bytes accessed per row activation
system.mem_ctrls1.bytesPerActivate::896-959          247      1.02%    100.00% # Bytes accessed per row activation
system.mem_ctrls1.bytesPerActivate::960-1023            1      0.00%    100.00% # Bytes accessed per row activation
system.mem_ctrls1.bytesPerActivate::total        24233                       # Bytes accessed per row activation
system.mem_ctrls1.rdPerTurnAround::samples          423                       # Reads before turning the bus around for writes
system.mem_ctrls1.rdPerTurnAround::mean    109.082742                       # Reads before turning the bus around for writes
system.mem_ctrls1.rdPerTurnAround::stdev  1344.061510                       # Reads before turning the bus around for writes
system.mem_ctrls1.rdPerTurnAround::0-1023          422     99.76%     99.76% # Reads before turning the bus around for writes
system.mem_ctrls1.rdPerTurnAround::27648-28671            1      0.24%    100.00% # Reads before turning the bus around for writes
system.mem_ctrls1.rdPerTurnAround::total          423                       # Reads before turning the bus around for writes
system.mem_ctrls1.wrPerTurnAround::samples          423                       # Writes before turning the bus around for reads
system.mem_ctrls1.wrPerTurnAround::mean     17.919622                       # Writes before turning the bus around for reads
system.mem_ctrls1.wrPerTurnAround::gmean    17.911479                       # Writes before turning the bus around for reads
system.mem_ctrls1.wrPerTurnAround::stdev     0.527147                       # Writes before turning the bus around for reads
system.mem_ctrls1.wrPerTurnAround::16              25      5.91%      5.91% # Writes before turning the bus around for reads
system.mem_ctrls1.wrPerTurnAround::17               1      0.24%      6.15% # Writes before turning the bus around for reads
system.mem_ctrls1.wrPerTurnAround::18             381     90.07%     96.22% # Writes before turning the bus around for reads
system.mem_ctrls1.wrPerTurnAround::19              15      3.55%     99.76% # Writes before turning the bus around for reads
system.mem_ctrls1.wrPerTurnAround::20               1      0.24%    100.00% # Writes before turning the bus around for reads
system.mem_ctrls1.wrPerTurnAround::total          423                       # Writes before turning the bus around for reads
system.mem_ctrls1.totQLat                  4244172199                       # Total ticks spent queuing
system.mem_ctrls1.totMemAccLat             5109578449                       # Total ticks spent from burst creation until serviced by the DRAM
system.mem_ctrls1.totBusLat                 230775000                       # Total ticks spent in databus transfers
system.mem_ctrls1.avgQLat                    91954.77                       # Average queueing delay per DRAM burst
system.mem_ctrls1.avgBusLat                   5000.00                       # Average bus latency per DRAM burst
system.mem_ctrls1.avgMemAccLat              110704.77                       # Average memory access latency per DRAM burst
system.mem_ctrls1.avgRdBW                        2.78                       # Average DRAM read bandwidth in MiByte/s
system.mem_ctrls1.avgWrBW                        0.46                       # Average achieved write bandwidth in MiByte/s
system.mem_ctrls1.avgRdBWSys                     2.83                       # Average system read bandwidth in MiByte/s
system.mem_ctrls1.avgWrBWSys                     0.46                       # Average system write bandwidth in MiByte/s
system.mem_ctrls1.peakBW                     12800.00                       # Theoretical peak bandwidth in MiByte/s
system.mem_ctrls1.busUtil                        0.03                       # Data bus utilization in percentage
system.mem_ctrls1.busUtilRead                    0.02                       # Data bus utilization in percentage for reads
system.mem_ctrls1.busUtilWrite                   0.00                       # Data bus utilization in percentage for writes
system.mem_ctrls1.avgRdQLen                      1.00                       # Average read queue length when enqueuing
system.mem_ctrls1.avgWrQLen                     14.00                       # Average write queue length when enqueuing
system.mem_ctrls1.readRowHits                   28000                       # Number of row buffer hits during reads
system.mem_ctrls1.writeRowHits                   1502                       # Number of row buffer hits during writes
system.mem_ctrls1.readRowHitRate                60.67                       # Row buffer hit rate for reads
system.mem_ctrls1.writeRowHitRate               19.75                       # Row buffer hit rate for writes
system.mem_ctrls1.avgGap                  19452294.24                       # Average gap between requests
system.mem_ctrls1.pageHitRate                   54.88                       # Row buffer hit rate, read and write combined
system.mem_ctrls1_0.actEnergy                79075500                       # Energy for activate commands per rank (pJ)
system.mem_ctrls1_0.preEnergy                42029625                       # Energy for precharge commands per rank (pJ)
system.mem_ctrls1_0.readEnergy              158115300                       # Energy for read commands per rank (pJ)
system.mem_ctrls1_0.writeEnergy              18249120                       # Energy for write commands per rank (pJ)
system.mem_ctrls1_0.refreshEnergy        7502910480.000002                       # Energy for refresh commands per rank (pJ)
system.mem_ctrls1_0.actBackEnergy          2411693940                       # Energy for active background per rank (pJ)
system.mem_ctrls1_0.preBackEnergy           449625120                       # Energy for precharge background per rank (pJ)
system.mem_ctrls1_0.actPowerDownEnergy    15998934990                       # Energy for active power-down per rank (pJ)
system.mem_ctrls1_0.prePowerDownEnergy    11336501760                       # Energy for precharge power-down per rank (pJ)
system.mem_ctrls1_0.selfRefreshEnergy    239486959800                       # Energy for self refresh per rank (pJ)
system.mem_ctrls1_0.totalEnergy          277485537525                       # Total energy per rank (pJ)
system.mem_ctrls1_0.averagePower           261.453908                       # Core power per rank (mW)
system.mem_ctrls1_0.totalIdleTime        1054830405781                       # Total Idle time Per DRAM Rank
system.mem_ctrls1_0.memoryStateTime::IDLE    908596133                       # Time in different power states
system.mem_ctrls1_0.memoryStateTime::REF   3193848000                       # Time in different power states
system.mem_ctrls1_0.memoryStateTime::SREF 990246784393                       # Time in different power states
system.mem_ctrls1_0.memoryStateTime::PRE_PDN  29522109355                       # Time in different power states
system.mem_ctrls1_0.memoryStateTime::ACT   2360560278                       # Time in different power states
system.mem_ctrls1_0.memoryStateTime::ACT_PDN  35085329234                       # Time in different power states
system.mem_ctrls1_1.actEnergy                93948120                       # Energy for activate commands per rank (pJ)
system.mem_ctrls1_1.preEnergy                49934610                       # Energy for precharge commands per rank (pJ)
system.mem_ctrls1_1.readEnergy              171431400                       # Energy for read commands per rank (pJ)
system.mem_ctrls1_1.writeEnergy              21318480                       # Energy for write commands per rank (pJ)
system.mem_ctrls1_1.refreshEnergy        8980505040.000002                       # Energy for refresh commands per rank (pJ)
system.mem_ctrls1_1.actBackEnergy          2746273110                       # Energy for active background per rank (pJ)
system.mem_ctrls1_1.preBackEnergy           539697600                       # Energy for precharge background per rank (pJ)
system.mem_ctrls1_1.actPowerDownEnergy    19193430450                       # Energy for active power-down per rank (pJ)
system.mem_ctrls1_1.prePowerDownEnergy    13757962560                       # Energy for precharge power-down per rank (pJ)
system.mem_ctrls1_1.selfRefreshEnergy    236398047720                       # Energy for self refresh per rank (pJ)
system.mem_ctrls1_1.totalEnergy          281954592630                       # Total energy per rank (pJ)
system.mem_ctrls1_1.averagePower           265.664766                       # Core power per rank (mW)
system.mem_ctrls1_1.totalIdleTime        1053879930385                       # Total Idle time Per DRAM Rank
system.mem_ctrls1_1.memoryStateTime::IDLE   1091995602                       # Time in different power states
system.mem_ctrls1_1.memoryStateTime::REF   3822626000                       # Time in different power states
system.mem_ctrls1_1.memoryStateTime::SREF 975965792393                       # Time in different power states
system.mem_ctrls1_1.memoryStateTime::PRE_PDN  35827985298                       # Time in different power states
system.mem_ctrls1_1.memoryStateTime::ACT   2517970740                       # Time in different power states
system.mem_ctrls1_1.memoryStateTime::ACT_PDN  42090857360                       # Time in different power states
system.pwrStateResidencyTicks::UNDEFINED 176612601349260                       # Cumulative time (in ticks) in various power states
system.cpu.branchPred.lookups                       4                       # Number of BP lookups
system.cpu.branchPred.condPredicted                 2                       # Number of conditional branches predicted
system.cpu.branchPred.condIncorrect                 1                       # Number of conditional branches incorrect
system.cpu.branchPred.BTBLookups                    2                       # Number of BTB lookups
system.cpu.branchPred.BTBHits                       0                       # Number of BTB hits
system.cpu.branchPred.BTBCorrect                    0                       # Number of correct BTB predictions (this stat may not work properly.
system.cpu.branchPred.BTBHitPct              0.000000                       # BTB Hit Percentage
system.cpu.branchPred.usedRAS                       0                       # Number of times the RAS was used to get a target.
system.cpu.branchPred.RASInCorrect                  0                       # Number of incorrect RAS predictions.
system.cpu.branchPred.indirectLookups               0                       # Number of indirect predictor lookups.
system.cpu.branchPred.indirectHits                  0                       # Number of indirect target hits.
system.cpu.branchPred.indirectMisses                0                       # Number of indirect misses.
system.cpu.branchPredindirectMispredicted            0                       # Number of mispredicted indirect branches.
system.cpu_voltage_domain.voltage                   1                       # Voltage in Volts
system.cpu_clk_domain.clock                       333                       # Clock period in ticks
system.cpu.dtb.fetch_hits                           0                       # ITB hits
system.cpu.dtb.fetch_misses                         0                       # ITB misses
system.cpu.dtb.fetch_acv                            0                       # ITB acv
system.cpu.dtb.fetch_accesses                       0                       # ITB accesses
system.cpu.dtb.read_hits                           10                       # DTB read hits
system.cpu.dtb.read_misses                          0                       # DTB read misses
system.cpu.dtb.read_acv                             0                       # DTB read access violations
system.cpu.dtb.read_accesses                       10                       # DTB read accesses
system.cpu.dtb.write_hits                           0                       # DTB write hits
system.cpu.dtb.write_misses                         0                       # DTB write misses
system.cpu.dtb.write_acv                            0                       # DTB write access violations
system.cpu.dtb.write_accesses                       0                       # DTB write accesses
system.cpu.dtb.data_hits                           10                       # DTB hits
system.cpu.dtb.data_misses                          0                       # DTB misses
system.cpu.dtb.data_acv                             0                       # DTB access violations
system.cpu.dtb.data_accesses                       10                       # DTB accesses
system.cpu.itb.fetch_hits                           5                       # ITB hits
system.cpu.itb.fetch_misses                         0                       # ITB misses
system.cpu.itb.fetch_acv                            0                       # ITB acv
system.cpu.itb.fetch_accesses                       5                       # ITB accesses
system.cpu.itb.read_hits                            0                       # DTB read hits
system.cpu.itb.read_misses                          0                       # DTB read misses
system.cpu.itb.read_acv                             0                       # DTB read access violations
system.cpu.itb.read_accesses                        0                       # DTB read accesses
system.cpu.itb.write_hits                           0                       # DTB write hits
system.cpu.itb.write_misses                         0                       # DTB write misses
system.cpu.itb.write_acv                            0                       # DTB write access violations
system.cpu.itb.write_accesses                       0                       # DTB write accesses
system.cpu.itb.data_hits                            0                       # DTB hits
system.cpu.itb.data_misses                          0                       # DTB misses
system.cpu.itb.data_acv                             0                       # DTB access violations
system.cpu.itb.data_accesses                        0                       # DTB accesses
system.cpu.workload.num_syscalls                    0                       # Number of system calls
system.cpu.pwrStateResidencyTicks::ON    1061317227393                       # Cumulative time (in ticks) in various power states
system.cpu.numCycles                              971                       # number of cpu cycles simulated
system.cpu.numWorkItemsStarted                      0                       # number of work items this cpu started
system.cpu.numWorkItemsCompleted                    0                       # number of work items this cpu completed
system.cpu.fetch.icacheStallCycles                 49                       # Number of cycles fetch is stalled on an Icache miss
system.cpu.fetch.Insts                             32                       # Number of instructions fetch has processed
system.cpu.fetch.Branches                           4                       # Number of branches that fetch encountered
system.cpu.fetch.Cycles                             4                       # Number of cycles fetch has run and was not squashing or blocked
system.cpu.fetch.SquashCycles                       5                       # Number of cycles fetch has spent squashing
system.cpu.fetch.PendingDrainCycles                 7                       # Number of cycles fetch has spent waiting on pipes to drain
system.cpu.fetch.CacheLines                         5                       # Number of cache lines fetched
system.cpu.fetch.IcacheSquashes                     3                       # Number of outstanding Icache misses that were squashed
system.cpu.fetch.rateDist::samples                 62                       # Number of instructions fetched each cycle (Total)
system.cpu.fetch.rateDist::mean              0.516129                       # Number of instructions fetched each cycle (Total)
system.cpu.fetch.rateDist::stdev             1.981405                       # Number of instructions fetched each cycle (Total)
system.cpu.fetch.rateDist::underflows               0      0.00%      0.00% # Number of instructions fetched each cycle (Total)
system.cpu.fetch.rateDist::0                       58     93.55%     93.55% # Number of instructions fetched each cycle (Total)
system.cpu.fetch.rateDist::1                        0      0.00%     93.55% # Number of instructions fetched each cycle (Total)
system.cpu.fetch.rateDist::2                        0      0.00%     93.55% # Number of instructions fetched each cycle (Total)
system.cpu.fetch.rateDist::3                        0      0.00%     93.55% # Number of instructions fetched each cycle (Total)
system.cpu.fetch.rateDist::4                        0      0.00%     93.55% # Number of instructions fetched each cycle (Total)
system.cpu.fetch.rateDist::5                        0      0.00%     93.55% # Number of instructions fetched each cycle (Total)
system.cpu.fetch.rateDist::6                        0      0.00%     93.55% # Number of instructions fetched each cycle (Total)
[...]
system.switch_cpus_1.iq.int_inst_queue_writes    223813232                       # Number of integer instruction queue writes
system.switch_cpus_1.iq.int_inst_queue_wakeup_accesses    206573205                       # Number of integer instruction queue wakeup accesses
system.switch_cpus_1.iq.fp_inst_queue_reads      2764283                       # Number of floating instruction queue reads
system.switch_cpus_1.iq.fp_inst_queue_writes      1435629                       # Number of floating instruction queue writes
system.switch_cpus_1.iq.fp_inst_queue_wakeup_accesses      1372160                       # Number of floating instruction queue wakeup accesses
system.switch_cpus_1.iq.int_alu_accesses    218641691                       # Number of integer alu accesses
system.switch_cpus_1.iq.fp_alu_accesses       1386049                       # Number of floating point alu accesses
system.switch_cpus_1.iew.lsq.thread0.forwLoads      2833495                       # Number of loads that had data forwarded from stores
system.switch_cpus_1.iew.lsq.thread0.invAddrLoads            0                       # Number of loads ignored due to an invalid address
system.switch_cpus_1.iew.lsq.thread0.squashedLoads      2649571                       # Number of loads squashed
system.switch_cpus_1.iew.lsq.thread0.ignoredResponses         6929                       # Number of memory responses ignored because the instruction is squashed
system.switch_cpus_1.iew.lsq.thread0.memOrderViolation        15938                       # Number of memory ordering violations
system.switch_cpus_1.iew.lsq.thread0.squashedStores       577577                       # Number of stores squashed
system.switch_cpus_1.iew.lsq.thread0.invAddrSwpfs            0                       # Number of software prefetches ignored due to an invalid address
system.switch_cpus_1.iew.lsq.thread0.blockedLoads            0                       # Number of blocked loads due to partial load-store forwarding
system.switch_cpus_1.iew.lsq.thread0.rescheduledLoads         1093                       # Number of loads that were rescheduled
system.switch_cpus_1.iew.lsq.thread0.cacheBlocked       525415                       # Number of times an access to memory failed due to the cache being blocked
system.switch_cpus_1.iew.iewIdleCycles              0                       # Number of cycles IEW is idle
system.switch_cpus_1.iew.iewSquashCycles       313626                       # Number of cycles IEW is squashing
system.switch_cpus_1.iew.iewBlockCycles       1984135                       # Number of cycles IEW is blocking
system.switch_cpus_1.iew.iewUnblockCycles      3278330                       # Number of cycles IEW is unblocking
system.switch_cpus_1.iew.iewDispatchedInsts    213797628                       # Number of instructions dispatched to IQ
system.switch_cpus_1.iew.iewDispSquashedInsts        56117                       # Number of squashed instructions skipped by dispatch
system.switch_cpus_1.iew.iewDispLoadInsts     72317046                       # Number of dispatched load instructions
system.switch_cpus_1.iew.iewDispStoreInsts     13487999                       # Number of dispatched store instructions
system.switch_cpus_1.iew.iewDispNonSpecInsts            0                       # Number of dispatched non-speculative instructions
system.switch_cpus_1.iew.iewIQFullEvents        15120                       # Number of times the IQ has become full, causing a stall
system.switch_cpus_1.iew.iewLSQFullEvents      3266008                       # Number of times the LSQ has become full, causing a stall
system.switch_cpus_1.iew.memOrderViolationEvents        15938                       # Number of memory order violations
system.switch_cpus_1.iew.predictedTakenIncorrect       222538                       # Number of branches that were predicted taken incorrectly
system.switch_cpus_1.iew.predictedNotTakenIncorrect        80879                       # Number of branches that were predicted not taken incorrectly
system.switch_cpus_1.iew.branchMispredicts       303417                       # Number of branch mispredicts detected at execute
system.switch_cpus_1.iew.iewExecutedInsts    209067749                       # Number of executed instructions
system.switch_cpus_1.iew.iewExecLoadInsts     72137560                       # Number of load instructions executed
system.switch_cpus_1.iew.iewExecSquashedInsts       527685                       # Number of squashed instructions skipped in execute
system.switch_cpus_1.iew.exec_swp                   0                       # number of swp insts executed
system.switch_cpus_1.iew.exec_nop             1181037                       # number of nop insts executed
system.switch_cpus_1.iew.exec_refs           85262594                       # number of memory reference insts executed
system.switch_cpus_1.iew.exec_branches       15242611                       # Number of branches executed
system.switch_cpus_1.iew.exec_stores         13125034                       # Number of stores executed
system.switch_cpus_1.iew.exec_rate           2.268443                       # Inst execution rate
system.switch_cpus_1.iew.wb_sent            208219631                       # cumulative count of insts sent to commit
system.switch_cpus_1.iew.wb_count           207945365                       # cumulative count of insts written-back
system.switch_cpus_1.iew.wb_producers       134589088                       # num instructions producing a value
system.switch_cpus_1.iew.wb_consumers       164751008                       # num instructions consuming a value
system.switch_cpus_1.iew.wb_rate             2.256265                       # insts written-back per cycle
system.switch_cpus_1.iew.wb_fanout           0.816924                       # average fanout of values written-back
system.switch_cpus_1.commit.commitSquashedInsts     12231595                       # The number of squashed insts skipped by commit
system.switch_cpus_1.commit.branchMispredicts       273594                       # The number of times a branch was mispredicted
system.switch_cpus_1.commit.committed_per_cycle::samples     89669251                       # Number of insts commited each cycle
system.switch_cpus_1.commit.committed_per_cycle::mean     2.242302                       # Number of insts commited each cycle
system.switch_cpus_1.commit.committed_per_cycle::stdev     3.062238                       # Number of insts commited each cycle
system.switch_cpus_1.commit.committed_per_cycle::underflows            0      0.00%      0.00% # Number of insts commited each cycle
system.switch_cpus_1.commit.committed_per_cycle::0     47019444     52.44%     52.44% # Number of insts commited each cycle
system.switch_cpus_1.commit.committed_per_cycle::1      9397149     10.48%     62.92% # Number of insts commited each cycle
system.switch_cpus_1.commit.committed_per_cycle::2      4774533      5.32%     68.24% # Number of insts commited each cycle
system.switch_cpus_1.commit.committed_per_cycle::3      3490869      3.89%     72.13% # Number of insts commited each cycle
system.switch_cpus_1.commit.committed_per_cycle::4      2537570      2.83%     74.96% # Number of insts commited each cycle
system.switch_cpus_1.commit.committed_per_cycle::5      3799447      4.24%     79.20% # Number of insts commited each cycle
system.switch_cpus_1.commit.committed_per_cycle::6      1564914      1.75%     80.95% # Number of insts commited each cycle
system.switch_cpus_1.commit.committed_per_cycle::7      3572836      3.98%     84.93% # Number of insts commited each cycle
system.switch_cpus_1.commit.committed_per_cycle::8     13512489     15.07%    100.00% # Number of insts commited each cycle
system.switch_cpus_1.commit.committed_per_cycle::overflows            0      0.00%    100.00% # Number of insts commited each cycle
system.switch_cpus_1.commit.committed_per_cycle::min_value            0                       # Number of insts commited each cycle
system.switch_cpus_1.commit.committed_per_cycle::max_value            8                       # Number of insts commited each cycle
system.switch_cpus_1.commit.committed_per_cycle::total     89669251                       # Number of insts commited each cycle
system.switch_cpus_1.commit.committedInsts    201065585                       # Number of instructions committed
system.switch_cpus_1.commit.committedOps    201065585                       # Number of ops (including micro ops) committed
system.switch_cpus_1.commit.swp_count               0                       # Number of s/w prefetches committed
system.switch_cpus_1.commit.refs             82577871                       # Number of memory references committed
system.switch_cpus_1.commit.loads            69667449                       # Number of loads committed
system.switch_cpus_1.commit.membars                 0                       # Number of memory barriers committed
system.switch_cpus_1.commit.branches         14245931                       # Number of branches committed
system.switch_cpus_1.commit.fp_insts          1340565                       # Number of committed floating point instructions.
system.switch_cpus_1.commit.int_insts       198509910                       # Number of committed integer instructions.
system.switch_cpus_1.commit.function_calls      2072159                       # Number of function calls committed.
system.switch_cpus_1.commit.op_class_0::No_OpClass      1225977      0.61%      0.61% # Class of committed instruction
system.switch_cpus_1.commit.op_class_0::IntAlu    115514890     57.45%     58.06% # Class of committed instruction
system.switch_cpus_1.commit.op_class_0::IntMult       939115      0.47%     58.53% # Class of committed instruction
system.switch_cpus_1.commit.op_class_0::IntDiv            0      0.00%     58.53% # Class of committed instruction
system.switch_cpus_1.commit.op_class_0::FloatAdd       455806      0.23%     58.75% # Class of committed instruction
system.switch_cpus_1.commit.op_class_0::FloatCmp        10815      0.01%     58.76% # Class of committed instruction
system.switch_cpus_1.commit.op_class_0::FloatCvt       252849      0.13%     58.89% # Class of committed instruction
system.switch_cpus_1.commit.op_class_0::FloatMult         8058      0.00%     58.89% # Class of committed instruction
system.switch_cpus_1.commit.op_class_0::FloatMultAcc            0      0.00%     58.89% # Class of committed instruction
system.switch_cpus_1.commit.op_class_0::FloatDiv        80200      0.04%     58.93% # Class of committed instruction
system.switch_cpus_1.commit.op_class_0::FloatMisc            0      0.00%     58.93% # Class of committed instruction
system.switch_cpus_1.commit.op_class_0::FloatSqrt            4      0.00%     58.93% # Class of committed instruction
system.switch_cpus_1.commit.op_class_0::SimdAdd            0      0.00%     58.93% # Class of committed instruction
system.switch_cpus_1.commit.op_class_0::SimdAddAcc            0      0.00%     58.93% # Class of committed instruction
system.switch_cpus_1.commit.op_class_0::SimdAlu            0      0.00%     58.93% # Class of committed instruction
system.switch_cpus_1.commit.op_class_0::SimdCmp            0      0.00%     58.93% # Class of committed instruction
system.switch_cpus_1.commit.op_class_0::SimdCvt            0      0.00%     58.93% # Class of committed instruction
system.switch_cpus_1.commit.op_class_0::SimdMisc            0      0.00%     58.93% # Class of committed instruction
system.switch_cpus_1.commit.op_class_0::SimdMult            0      0.00%     58.93% # Class of committed instruction
system.switch_cpus_1.commit.op_class_0::SimdMultAcc            0      0.00%     58.93% # Class of committed instruction
system.switch_cpus_1.commit.op_class_0::SimdShift            0      0.00%     58.93% # Class of committed instruction
system.switch_cpus_1.commit.op_class_0::SimdShiftAcc            0      0.00%     58.93% # Class of committed instruction
system.switch_cpus_1.commit.op_class_0::SimdSqrt            0      0.00%     58.93% # Class of committed instruction
system.switch_cpus_1.commit.op_class_0::SimdFloatAdd            0      0.00%     58.93% # Class of committed instruction
system.switch_cpus_1.commit.op_class_0::SimdFloatAlu            0      0.00%     58.93% # Class of committed instruction
system.switch_cpus_1.commit.op_class_0::SimdFloatCmp            0      0.00%     58.93% # Class of committed instruction
system.switch_cpus_1.commit.op_class_0::SimdFloatCvt            0      0.00%     58.93% # Class of committed instruction
system.switch_cpus_1.commit.op_class_0::SimdFloatDiv            0      0.00%     58.93% # Class of committed instruction
system.switch_cpus_1.commit.op_class_0::SimdFloatMisc            0      0.00%     58.93% # Class of committed instruction
system.switch_cpus_1.commit.op_class_0::SimdFloatMult            0      0.00%     58.93% # Class of committed instruction
system.switch_cpus_1.commit.op_class_0::SimdFloatMultAcc            0      0.00%     58.93% # Class of committed instruction
system.switch_cpus_1.commit.op_class_0::SimdFloatSqrt            0      0.00%     58.93% # Class of committed instruction
system.switch_cpus_1.commit.op_class_0::MemRead     69394564     34.51%     93.44% # Class of committed instruction
system.switch_cpus_1.commit.op_class_0::MemWrite     12650474      6.29%     99.73% # Class of committed instruction
system.switch_cpus_1.commit.op_class_0::FloatMemRead       272885      0.14%     99.87% # Class of committed instruction
system.switch_cpus_1.commit.op_class_0::FloatMemWrite       259948      0.13%    100.00% # Class of committed instruction
system.switch_cpus_1.commit.op_class_0::IprAccess            0      0.00%    100.00% # Class of committed instruction
system.switch_cpus_1.commit.op_class_0::InstPrefetch            0      0.00%    100.00% # Class of committed instruction
system.switch_cpus_1.commit.op_class_0::total    201065585                       # Class of committed instruction
system.switch_cpus_1.commit.bw_lim_events     13512489                       # number cycles where commit BW limit reached
system.switch_cpus_1.rob.rob_reads          289088811                       # The number of ROB reads
system.switch_cpus_1.rob.rob_writes         428284972                       # The number of ROB writes
system.switch_cpus_1.timesIdled                 16939                       # Number of times that the entire CPU went into an idle state and unscheduled itself
system.switch_cpus_1.idleCycles                805768                       # Total number of cycles that the CPU has spent unscheduled due to idling
system.switch_cpus_1.committedInsts         200000000                       # Number of Instructions Simulated
system.switch_cpus_1.committedOps           200000000                       # Number of Ops (including micro ops) Simulated
system.switch_cpus_1.cpi                     0.460818                       # CPI: Cycles Per Instruction
system.switch_cpus_1.cpi_total               0.460818                       # CPI: Total CPI of All Threads
system.switch_cpus_1.ipc                     2.170055                       # IPC: Instructions Per Cycle
system.switch_cpus_1.ipc_total               2.170055                       # IPC: Total IPC of All Threads
system.switch_cpus_1.int_regfile_reads      305225444                       # number of integer regfile reads
system.switch_cpus_1.int_regfile_writes     180694671                       # number of integer regfile writes
system.switch_cpus_1.fp_regfile_reads          984589                       # number of floating regfile reads
system.switch_cpus_1.fp_regfile_writes         922879                       # number of floating regfile writes
system.switch_cpus_1.misc_regfile_reads        167192                       # number of misc regfile reads
system.switch_cpus_1.misc_regfile_writes        80196                       # number of misc regfile writes
system.tol3bus.snoop_filter.tot_requests      3293648                       # Total number of requests made to the snoop filter.
system.tol3bus.snoop_filter.hit_single_requests      1644538                       # Number of requests hitting in the snoop filter with a single holder of the requested data.
system.tol3bus.snoop_filter.hit_multi_requests            0                       # Number of requests hitting in the snoop filter with multiple (>1) holders of the requested data.
system.tol3bus.snoop_filter.tot_snoops            160                       # Total number of snoops made to the snoop filter.
system.tol3bus.snoop_filter.hit_single_snoops          160                       # Number of snoops hitting in the snoop filter with a single holder of the requested data.
system.tol3bus.snoop_filter.hit_multi_snoops            0                       # Number of snoops hitting in the snoop filter with multiple (>1) holders of the requested data.
system.tol3bus.pwrStateResidencyTicks::UNDEFINED 176612601349260                       # Cumulative time (in ticks) in various power states
system.tol3bus.trans_dist::ReadResp            978995                       # Transaction distribution
system.tol3bus.trans_dist::WritebackDirty      1274835                       # Transaction distribution
system.tol3bus.trans_dist::CleanEvict          397274                       # Transaction distribution
system.tol3bus.trans_dist::UpgradeReq               3                       # Transaction distribution
system.tol3bus.trans_dist::UpgradeResp              3                       # Transaction distribution
system.tol3bus.trans_dist::ReadExReq           670115                       # Transaction distribution
system.tol3bus.trans_dist::ReadExResp          670115                       # Transaction distribution
system.tol3bus.trans_dist::ReadSharedReq       978995                       # Transaction distribution
system.tol3bus.pkt_count_system.cpu.l2.mem_side::system.l3.cpu_side      4942761                       # Packet count per connected master and slave (bytes)
system.tol3bus.pkt_size_system.cpu.l2.mem_side::system.l3.cpu_side    186179200                       # Cumulative packet size per connected master and slave (bytes)
system.tol3bus.snoops                           27574                       # Total snoops (count)
system.tol3bus.snoopTraffic                    953280                       # Total snoop traffic (bytes)
system.tol3bus.snoop_fanout::samples          1676687                       # Request fanout histogram
system.tol3bus.snoop_fanout::mean            0.000095                       # Request fanout histogram
system.tol3bus.snoop_fanout::stdev           0.009768                       # Request fanout histogram
system.tol3bus.snoop_fanout::underflows             0      0.00%      0.00% # Request fanout histogram
system.tol3bus.snoop_fanout::0                1676527     99.99%     99.99% # Request fanout histogram
system.tol3bus.snoop_fanout::1                    160      0.01%    100.00% # Request fanout histogram
system.tol3bus.snoop_fanout::overflows              0      0.00%    100.00% # Request fanout histogram
system.tol3bus.snoop_fanout::min_value              0                       # Request fanout histogram
system.tol3bus.snoop_fanout::max_value              1                       # Request fanout histogram
system.tol3bus.snoop_fanout::total            1676687                       # Request fanout histogram
system.tol3bus.reqLayer0.occupancy         1516344804                       # Layer occupancy (ticks)
system.tol3bus.reqLayer0.utilization              0.1                       # Layer utilization (%)
system.tol3bus.respLayer0.occupancy        1098308259                       # Layer occupancy (ticks)
system.tol3bus.respLayer0.utilization             0.1                       # Layer utilization (%)

---------- End Simulation Statistics   ----------
