
---------- Begin Simulation Statistics ----------
sim_seconds                                  2.770606                       # Number of seconds simulated
sim_ticks                                2770605922698                       # Number of ticks simulated
final_tick                               129723602447430                       # Number of ticks from beginning of simulation (restored from checkpoints and never reset)
sim_freq                                 1000000000000                       # Frequency of simulated ticks
host_inst_rate                                 214182                       # Simulator instruction rate (inst/s)
host_op_rate                                   214182                       # Simulator op (including micro ops) rate (op/s)
host_tick_rate                              494510854                       # Simulator tick rate (ticks/s)
host_mem_usage                                2436592                       # Number of bytes of host memory used
host_seconds                                  5602.72                       # Real time elapsed on the host
sim_insts                                  1200000003                       # Number of instructions simulated
sim_ops                                    1200000003                       # Number of ops (including micro ops) simulated
system.voltage_domain.voltage                       1                       # Voltage in Volts
system.clk_domain.clock                          1000                       # Clock period in ticks
system.mem_ctrls0.pwrStateResidencyTicks::UNDEFINED 129723602447430                       # Cumulative time (in ticks) in various power states
system.mem_ctrls0.bytes_read::cpu.inst            128                       # Number of bytes read from this memory
system.mem_ctrls0.bytes_read::switch_cpus.inst       675712                       # Number of bytes read from this memory
system.mem_ctrls0.bytes_read::switch_cpus.data    363263296                       # Number of bytes read from this memory
system.mem_ctrls0.bytes_read::switch_cpus_1.inst       198400                       # Number of bytes read from this memory
system.mem_ctrls0.bytes_read::switch_cpus_1.data     81474176                       # Number of bytes read from this memory
system.mem_ctrls0.bytes_read::total         445611712                       # Number of bytes read from this memory
system.mem_ctrls0.bytes_inst_read::cpu.inst          128                       # Number of instructions bytes read from this memory
system.mem_ctrls0.bytes_inst_read::switch_cpus.inst       675712                       # Number of instructions bytes read from this memory
system.mem_ctrls0.bytes_inst_read::switch_cpus_1.inst       198400                       # Number of instructions bytes read from this memory
system.mem_ctrls0.bytes_inst_read::total       874240                       # Number of instructions bytes read from this memory
system.mem_ctrls0.bytes_written::writebacks    187265600                       # Number of bytes written to this memory
system.mem_ctrls0.bytes_written::total      187265600                       # Number of bytes written to this memory
system.mem_ctrls0.num_reads::cpu.inst               2                       # Number of read requests responded to by this memory
system.mem_ctrls0.num_reads::switch_cpus.inst        10558                       # Number of read requests responded to by this memory
system.mem_ctrls0.num_reads::switch_cpus.data      5675989                       # Number of read requests responded to by this memory
system.mem_ctrls0.num_reads::switch_cpus_1.inst         3100                       # Number of read requests responded to by this memory
system.mem_ctrls0.num_reads::switch_cpus_1.data      1273034                       # Number of read requests responded to by this memory
system.mem_ctrls0.num_reads::total            6962683                       # Number of read requests responded to by this memory
system.mem_ctrls0.num_writes::writebacks      2926025                       # Number of write requests responded to by this memory
system.mem_ctrls0.num_writes::total           2926025                       # Number of write requests responded to by this memory
system.mem_ctrls0.bw_read::cpu.inst                46                       # Total read bandwidth from this memory (bytes/s)
system.mem_ctrls0.bw_read::switch_cpus.inst       243886                       # Total read bandwidth from this memory (bytes/s)
system.mem_ctrls0.bw_read::switch_cpus.data    131113304                       # Total read bandwidth from this memory (bytes/s)
system.mem_ctrls0.bw_read::switch_cpus_1.inst        71609                       # Total read bandwidth from this memory (bytes/s)
system.mem_ctrls0.bw_read::switch_cpus_1.data     29406627                       # Total read bandwidth from this memory (bytes/s)
system.mem_ctrls0.bw_read::total            160835472                       # Total read bandwidth from this memory (bytes/s)
system.mem_ctrls0.bw_inst_read::cpu.inst           46                       # Instruction read bandwidth from this memory (bytes/s)
system.mem_ctrls0.bw_inst_read::switch_cpus.inst       243886                       # Instruction read bandwidth from this memory (bytes/s)
system.mem_ctrls0.bw_inst_read::switch_cpus_1.inst        71609                       # Instruction read bandwidth from this memory (bytes/s)
system.mem_ctrls0.bw_inst_read::total          315541                       # Instruction read bandwidth from this memory (bytes/s)
system.mem_ctrls0.bw_write::writebacks       67590125                       # Write bandwidth from this memory (bytes/s)
system.mem_ctrls0.bw_write::total            67590125                       # Write bandwidth from this memory (bytes/s)
system.mem_ctrls0.bw_total::writebacks       67590125                       # Total bandwidth to/from this memory (bytes/s)
system.mem_ctrls0.bw_total::cpu.inst               46                       # Total bandwidth to/from this memory (bytes/s)
system.mem_ctrls0.bw_total::switch_cpus.inst       243886                       # Total bandwidth to/from this memory (bytes/s)
system.mem_ctrls0.bw_total::switch_cpus.data    131113304                       # Total bandwidth to/from this memory (bytes/s)
system.mem_ctrls0.bw_total::switch_cpus_1.inst        71609                       # Total bandwidth to/from this memory (bytes/s)
system.mem_ctrls0.bw_total::switch_cpus_1.data     29406627                       # Total bandwidth to/from this memory (bytes/s)
system.mem_ctrls0.bw_total::total           228425597                       # Total bandwidth to/from this memory (bytes/s)
system.mem_ctrls0.readReqs                    6962683                       # Number of read requests accepted
system.mem_ctrls0.writeReqs                   2926025                       # Number of write requests accepted
system.mem_ctrls0.readBursts                  6962683                       # Number of DRAM read bursts, including those serviced by the write queue
system.mem_ctrls0.writeBursts                 2926025                       # Number of DRAM write bursts, including those merged in the write queue
system.mem_ctrls0.bytesReadDRAM             445420544                       # Total number of bytes read from DRAM
system.mem_ctrls0.bytesReadWrQ                 191168                       # Total number of bytes read from write queue
system.mem_ctrls0.bytesWritten              187264448                       # Total number of bytes written to DRAM
system.mem_ctrls0.bytesReadSys              445611712                       # Total read bytes from the system interface side
system.mem_ctrls0.bytesWrittenSys           187265600                       # Total written bytes from the system interface side
system.mem_ctrls0.servicedByWrQ                  2987                       # Number of DRAM read bursts serviced by the write queue
system.mem_ctrls0.mergedWrBursts                    0                       # Number of DRAM write bursts merged with an existing one
system.mem_ctrls0.neitherReadNorWriteReqs            0                       # Number of requests that are neither read nor write
system.mem_ctrls0.perBankRdBursts::0           429130                       # Per bank write bursts
system.mem_ctrls0.perBankRdBursts::1           441068                       # Per bank write bursts
system.mem_ctrls0.perBankRdBursts::2           440483                       # Per bank write bursts
system.mem_ctrls0.perBankRdBursts::3           424645                       # Per bank write bursts
system.mem_ctrls0.perBankRdBursts::4           424100                       # Per bank write bursts
system.mem_ctrls0.perBankRdBursts::5           440687                       # Per bank write bursts
system.mem_ctrls0.perBankRdBursts::6           447154                       # Per bank write bursts
system.mem_ctrls0.perBankRdBursts::7           445344                       # Per bank write bursts
system.mem_ctrls0.perBankRdBursts::8           455203                       # Per bank write bursts
system.mem_ctrls0.perBankRdBursts::9           439194                       # Per bank write bursts
system.mem_ctrls0.perBankRdBursts::10          423342                       # Per bank write bursts
system.mem_ctrls0.perBankRdBursts::11          423315                       # Per bank write bursts
system.mem_ctrls0.perBankRdBursts::12          419655                       # Per bank write bursts
system.mem_ctrls0.perBankRdBursts::13          436449                       # Per bank write bursts
system.mem_ctrls0.perBankRdBursts::14          437753                       # Per bank write bursts
system.mem_ctrls0.perBankRdBursts::15          432174                       # Per bank write bursts
system.mem_ctrls0.perBankWrBursts::0           181286                       # Per bank write bursts
system.mem_ctrls0.perBankWrBursts::1           182167                       # Per bank write bursts
system.mem_ctrls0.perBankWrBursts::2           185485                       # Per bank write bursts
system.mem_ctrls0.perBankWrBursts::3           175424                       # Per bank write bursts
system.mem_ctrls0.perBankWrBursts::4           177173                       # Per bank write bursts
system.mem_ctrls0.perBankWrBursts::5           185539                       # Per bank write bursts
system.mem_ctrls0.perBankWrBursts::6           191655                       # Per bank write bursts
system.mem_ctrls0.perBankWrBursts::7           190631                       # Per bank write bursts
system.mem_ctrls0.perBankWrBursts::8           191664                       # Per bank write bursts
system.mem_ctrls0.perBankWrBursts::9           182520                       # Per bank write bursts
system.mem_ctrls0.perBankWrBursts::10          178447                       # Per bank write bursts
system.mem_ctrls0.perBankWrBursts::11          180833                       # Per bank write bursts
system.mem_ctrls0.perBankWrBursts::12          174044                       # Per bank write bursts
system.mem_ctrls0.perBankWrBursts::13          182061                       # Per bank write bursts
system.mem_ctrls0.perBankWrBursts::14          186661                       # Per bank write bursts
system.mem_ctrls0.perBankWrBursts::15          180417                       # Per bank write bursts
system.mem_ctrls0.numRdRetry                        0                       # Number of times read queue was full causing retry
system.mem_ctrls0.numWrRetry                        0                       # Number of times write queue was full causing retry
system.mem_ctrls0.totGap                 2770605788499                       # Total gap between requests
system.mem_ctrls0.readPktSize::0                    0                       # Read request sizes (log2)
system.mem_ctrls0.readPktSize::1                    0                       # Read request sizes (log2)
system.mem_ctrls0.readPktSize::2                    0                       # Read request sizes (log2)
system.mem_ctrls0.readPktSize::3                    0                       # Read request sizes (log2)
system.mem_ctrls0.readPktSize::4                    0                       # Read request sizes (log2)
system.mem_ctrls0.readPktSize::5                    0                       # Read request sizes (log2)
system.mem_ctrls0.readPktSize::6              6962683                       # Read request sizes (log2)
system.mem_ctrls0.writePktSize::0                   0                       # Write request sizes (log2)
system.mem_ctrls0.writePktSize::1                   0                       # Write request sizes (log2)
system.mem_ctrls0.writePktSize::2                   0                       # Write request sizes (log2)
system.mem_ctrls0.writePktSize::3                   0                       # Write request sizes (log2)
system.mem_ctrls0.writePktSize::4                   0                       # Write request sizes (log2)
system.mem_ctrls0.writePktSize::5                   0                       # Write request sizes (log2)
system.mem_ctrls0.writePktSize::6             2926025                       # Write request sizes (log2)
system.mem_ctrls0.rdQLenPdf::0                6687266                       # What read queue length does an incoming req see
system.mem_ctrls0.rdQLenPdf::1                 240417                       # What read queue length does an incoming req see
system.mem_ctrls0.rdQLenPdf::2                  30030                       # What read queue length does an incoming req see
system.mem_ctrls0.rdQLenPdf::3                   1980                       # What read queue length does an incoming req see
system.mem_ctrls0.rdQLenPdf::4                      3                       # What read queue length does an incoming req see
system.mem_ctrls0.rdQLenPdf::5                      0                       # What read queue length does an incoming req see
system.mem_ctrls0.rdQLenPdf::6                      0                       # What read queue length does an incoming req see
system.mem_ctrls0.rdQLenPdf::7                      0                       # What read queue length does an incoming req see
system.mem_ctrls0.rdQLenPdf::8                      0                       # What read queue length does an incoming req see
system.mem_ctrls0.rdQLenPdf::9                      0                       # What read queue length does an incoming req see
system.mem_ctrls0.rdQLenPdf::10                     0                       # What read queue length does an incoming req see
system.mem_ctrls0.rdQLenPdf::11                     0                       # What read queue length does an incoming req see
system.mem_ctrls0.rdQLenPdf::12                     0                       # What read queue length does an incoming req see
system.mem_ctrls0.rdQLenPdf::13                     0                       # What read queue length does an incoming req see
system.mem_ctrls0.rdQLenPdf::14                     0                       # What read queue length does an incoming req see
system.mem_ctrls0.rdQLenPdf::15                     0                       # What read queue length does an incoming req see
system.mem_ctrls0.rdQLenPdf::16                     0                       # What read queue length does an incoming req see
system.mem_ctrls0.rdQLenPdf::17                     0                       # What read queue length does an incoming req see
system.mem_ctrls0.rdQLenPdf::18                     0                       # What read queue length does an incoming req see
system.mem_ctrls0.rdQLenPdf::19                     0                       # What read queue length does an incoming req see
system.mem_ctrls0.rdQLenPdf::20                     0                       # What read queue length does an incoming req see
system.mem_ctrls0.rdQLenPdf::21                     0                       # What read queue length does an incoming req see
system.mem_ctrls0.rdQLenPdf::22                     0                       # What read queue length does an incoming req see
system.mem_ctrls0.rdQLenPdf::23                     0                       # What read queue length does an incoming req see
system.mem_ctrls0.rdQLenPdf::24                     0                       # What read queue length does an incoming req see
system.mem_ctrls0.rdQLenPdf::25                     0                       # What read queue length does an incoming req see
system.mem_ctrls0.rdQLenPdf::26                     0                       # What read queue length does an incoming req see
system.mem_ctrls0.rdQLenPdf::27                     0                       # What read queue length does an incoming req see
system.mem_ctrls0.rdQLenPdf::28                     0                       # What read queue length does an incoming req see
system.mem_ctrls0.rdQLenPdf::29                     0                       # What read queue length does an incoming req see
system.mem_ctrls0.rdQLenPdf::30                     0                       # What read queue length does an incoming req see
system.mem_ctrls0.rdQLenPdf::31                     0                       # What read queue length does an incoming req see
system.mem_ctrls0.wrQLenPdf::0                      2                       # What write queue length does an incoming req see
system.mem_ctrls0.wrQLenPdf::1                      2                       # What write queue length does an incoming req see
system.mem_ctrls0.wrQLenPdf::2                      2                       # What write queue length does an incoming req see
system.mem_ctrls0.wrQLenPdf::3                      2                       # What write queue length does an incoming req see
system.mem_ctrls0.wrQLenPdf::4                      2                       # What write queue length does an incoming req see
system.mem_ctrls0.wrQLenPdf::5                      2                       # What write queue length does an incoming req see
system.mem_ctrls0.wrQLenPdf::6                      2                       # What write queue length does an incoming req see
system.mem_ctrls0.wrQLenPdf::7                      2                       # What write queue length does an incoming req see
system.mem_ctrls0.wrQLenPdf::8                      2                       # What write queue length does an incoming req see
system.mem_ctrls0.wrQLenPdf::9                      2                       # What write queue length does an incoming req see
system.mem_ctrls0.wrQLenPdf::10                     2                       # What write queue length does an incoming req see
system.mem_ctrls0.wrQLenPdf::11                     2                       # What write queue length does an incoming req see
system.mem_ctrls0.wrQLenPdf::12                     2                       # What write queue length does an incoming req see
system.mem_ctrls0.wrQLenPdf::13                     2                       # What write queue length does an incoming req see
system.mem_ctrls0.wrQLenPdf::14                     2                       # What write queue length does an incoming req see
system.mem_ctrls0.wrQLenPdf::15                105896                       # What write queue length does an incoming req see
system.mem_ctrls0.wrQLenPdf::16                110150                       # What write queue length does an incoming req see
system.mem_ctrls0.wrQLenPdf::17                166106                       # What write queue length does an incoming req see
system.mem_ctrls0.wrQLenPdf::18                169189                       # What write queue length does an incoming req see
system.mem_ctrls0.wrQLenPdf::19                169402                       # What write queue length does an incoming req see
system.mem_ctrls0.wrQLenPdf::20                169458                       # What write queue length does an incoming req see
system.mem_ctrls0.wrQLenPdf::21                169425                       # What write queue length does an incoming req see
system.mem_ctrls0.wrQLenPdf::22                169343                       # What write queue length does an incoming req see
system.mem_ctrls0.wrQLenPdf::23                169352                       # What write queue length does an incoming req see
system.mem_ctrls0.wrQLenPdf::24                169444                       # What write queue length does an incoming req see
system.mem_ctrls0.wrQLenPdf::25                169417                       # What write queue length does an incoming req see
system.mem_ctrls0.wrQLenPdf::26                171399                       # What write queue length does an incoming req see
system.mem_ctrls0.wrQLenPdf::27                169610                       # What write queue length does an incoming req see
system.mem_ctrls0.wrQLenPdf::28                169420                       # What write queue length does an incoming req see
system.mem_ctrls0.wrQLenPdf::29                169642                       # What write queue length does an incoming req see
system.mem_ctrls0.wrQLenPdf::30                170578                       # What write queue length does an incoming req see
system.mem_ctrls0.wrQLenPdf::31                169073                       # What write queue length does an incoming req see
system.mem_ctrls0.wrQLenPdf::32                169045                       # What write queue length does an incoming req see
system.mem_ctrls0.wrQLenPdf::33                    45                       # What write queue length does an incoming req see
system.mem_ctrls0.wrQLenPdf::34                     1                       # What write queue length does an incoming req see
system.mem_ctrls0.wrQLenPdf::35                     0                       # What write queue length does an incoming req see
system.mem_ctrls0.wrQLenPdf::36                     0                       # What write queue length does an incoming req see
system.mem_ctrls0.wrQLenPdf::37                     0                       # What write queue length does an incoming req see
system.mem_ctrls0.wrQLenPdf::38                     0                       # What write queue length does an incoming req see
system.mem_ctrls0.wrQLenPdf::39                     0                       # What write queue length does an incoming req see
system.mem_ctrls0.wrQLenPdf::40                     0                       # What write queue length does an incoming req see
system.mem_ctrls0.wrQLenPdf::41                     0                       # What write queue length does an incoming req see
system.mem_ctrls0.wrQLenPdf::42                     0                       # What write queue length does an incoming req see
system.mem_ctrls0.wrQLenPdf::43                     0                       # What write queue length does an incoming req see
system.mem_ctrls0.wrQLenPdf::44                     0                       # What write queue length does an incoming req see
system.mem_ctrls0.wrQLenPdf::45                     0                       # What write queue length does an incoming req see
system.mem_ctrls0.wrQLenPdf::46                     0                       # What write queue length does an incoming req see
system.mem_ctrls0.wrQLenPdf::47                     0                       # What write queue length does an incoming req see
system.mem_ctrls0.wrQLenPdf::48                     0                       # What write queue length does an incoming req see
system.mem_ctrls0.wrQLenPdf::49                     0                       # What write queue length does an incoming req see
system.mem_ctrls0.wrQLenPdf::50                     0                       # What write queue length does an incoming req see
system.mem_ctrls0.wrQLenPdf::51                     0                       # What write queue length does an incoming req see
system.mem_ctrls0.wrQLenPdf::52                     0                       # What write queue length does an incoming req see
system.mem_ctrls0.wrQLenPdf::53                     0                       # What write queue length does an incoming req see
system.mem_ctrls0.wrQLenPdf::54                     0                       # What write queue length does an incoming req see
system.mem_ctrls0.wrQLenPdf::55                     0                       # What write queue length does an incoming req see
system.mem_ctrls0.wrQLenPdf::56                     0                       # What write queue length does an incoming req see
system.mem_ctrls0.wrQLenPdf::57                     0                       # What write queue length does an incoming req see
system.mem_ctrls0.wrQLenPdf::58                     0                       # What write queue length does an incoming req see
system.mem_ctrls0.wrQLenPdf::59                     0                       # What write queue length does an incoming req see
system.mem_ctrls0.wrQLenPdf::60                     0                       # What write queue length does an incoming req see
system.mem_ctrls0.wrQLenPdf::61                     0                       # What write queue length does an incoming req see
system.mem_ctrls0.wrQLenPdf::62                     0                       # What write queue length does an incoming req see
system.mem_ctrls0.wrQLenPdf::63                     0                       # What write queue length does an incoming req see
system.mem_ctrls0.bytesPerActivate::samples      6213165                       # Bytes accessed per row activation
system.mem_ctrls0.bytesPerActivate::mean   101.829660                       # Bytes accessed per row activation
system.mem_ctrls0.bytesPerActivate::gmean    83.724490                       # Bytes accessed per row activation
system.mem_ctrls0.bytesPerActivate::stdev    94.560879                       # Bytes accessed per row activation
system.mem_ctrls0.bytesPerActivate::0-127      4677335     75.28%     75.28% # Bytes accessed per row activation
system.mem_ctrls0.bytesPerActivate::128-255      1074343     17.29%     92.57% # Bytes accessed per row activation
system.mem_ctrls0.bytesPerActivate::256-383       260491      4.19%     96.76% # Bytes accessed per row activation
system.mem_ctrls0.bytesPerActivate::384-511       108328      1.74%     98.51% # Bytes accessed per row activation
system.mem_ctrls0.bytesPerActivate::512-639        54665      0.88%     99.39% # Bytes accessed per row activation
system.mem_ctrls0.bytesPerActivate::640-767        22697      0.37%     99.75% # Bytes accessed per row activation
system.mem_ctrls0.bytesPerActivate::768-895         8244      0.13%     99.89% # Bytes accessed per row activation
system.mem_ctrls0.bytesPerActivate::896-1023         3900      0.06%     99.95% # Bytes accessed per row activation
system.mem_ctrls0.bytesPerActivate::1024-1151         3162      0.05%    100.00% # Bytes accessed per row activation
system.mem_ctrls0.bytesPerActivate::total      6213165                       # Bytes accessed per row activation
system.mem_ctrls0.rdPerTurnAround::samples       169034                       # Reads before turning the bus around for writes
system.mem_ctrls0.rdPerTurnAround::mean     41.173320                       # Reads before turning the bus around for writes
system.mem_ctrls0.rdPerTurnAround::gmean    39.492248                       # Reads before turning the bus around for writes
system.mem_ctrls0.rdPerTurnAround::stdev    58.474755                       # Reads before turning the bus around for writes
system.mem_ctrls0.rdPerTurnAround::0-1023       169032    100.00%    100.00% # Reads before turning the bus around for writes
system.mem_ctrls0.rdPerTurnAround::1024-2047            1      0.00%    100.00% # Reads before turning the bus around for writes
system.mem_ctrls0.rdPerTurnAround::23552-24575            1      0.00%    100.00% # Reads before turning the bus around for writes
system.mem_ctrls0.rdPerTurnAround::total       169034                       # Reads before turning the bus around for writes
system.mem_ctrls0.wrPerTurnAround::samples       169034                       # Writes before turning the bus around for reads
system.mem_ctrls0.wrPerTurnAround::mean     17.310168                       # Writes before turning the bus around for reads
system.mem_ctrls0.wrPerTurnAround::gmean    17.281265                       # Writes before turning the bus around for reads
system.mem_ctrls0.wrPerTurnAround::stdev     0.991606                       # Writes before turning the bus around for reads
system.mem_ctrls0.wrPerTurnAround::16           59142     34.99%     34.99% # Writes before turning the bus around for reads
system.mem_ctrls0.wrPerTurnAround::17            3772      2.23%     37.22% # Writes before turning the bus around for reads
system.mem_ctrls0.wrPerTurnAround::18          101006     59.75%     96.97% # Writes before turning the bus around for reads
system.mem_ctrls0.wrPerTurnAround::19            4820      2.85%     99.83% # Writes before turning the bus around for reads
system.mem_ctrls0.wrPerTurnAround::20             262      0.15%     99.98% # Writes before turning the bus around for reads
system.mem_ctrls0.wrPerTurnAround::21              29      0.02%    100.00% # Writes before turning the bus around for reads
system.mem_ctrls0.wrPerTurnAround::22               2      0.00%    100.00% # Writes before turning the bus around for reads
system.mem_ctrls0.wrPerTurnAround::30               1      0.00%    100.00% # Writes before turning the bus around for reads
system.mem_ctrls0.wrPerTurnAround::total       169034                       # Writes before turning the bus around for reads
system.mem_ctrls0.totQLat                146477112903                       # Total ticks spent queuing
system.mem_ctrls0.totMemAccLat           276971412903                       # Total ticks spent from burst creation until serviced by the DRAM
system.mem_ctrls0.totBusLat               34798480000                       # Total ticks spent in databus transfers
system.mem_ctrls0.avgQLat                    21046.48                       # Average queueing delay per DRAM burst
system.mem_ctrls0.avgBusLat                   5000.00                       # Average bus latency per DRAM burst
system.mem_ctrls0.avgMemAccLat               39796.48                       # Average memory access latency per DRAM burst
system.mem_ctrls0.avgRdBW                      160.77                       # Average DRAM read bandwidth in MiByte/s
system.mem_ctrls0.avgWrBW                       67.59                       # Average achieved write bandwidth in MiByte/s
system.mem_ctrls0.avgRdBWSys                   160.84                       # Average system read bandwidth in MiByte/s
system.mem_ctrls0.avgWrBWSys                    67.59                       # Average system write bandwidth in MiByte/s
system.mem_ctrls0.peakBW                     12800.00                       # Theoretical peak bandwidth in MiByte/s
system.mem_ctrls0.busUtil                        1.78                       # Data bus utilization in percentage
system.mem_ctrls0.busUtilRead                    1.26                       # Data bus utilization in percentage for reads
system.mem_ctrls0.busUtilWrite                   0.53                       # Data bus utilization in percentage for writes
system.mem_ctrls0.avgRdQLen                      1.02                       # Average read queue length when enqueuing
system.mem_ctrls0.avgWrQLen                     24.76                       # Average write queue length when enqueuing
system.mem_ctrls0.readRowHits                 3620990                       # Number of row buffer hits during reads
system.mem_ctrls0.writeRowHits                  51542                       # Number of row buffer hits during writes
system.mem_ctrls0.readRowHitRate                52.03                       # Row buffer hit rate for reads
system.mem_ctrls0.writeRowHitRate                1.76                       # Row buffer hit rate for writes
system.mem_ctrls0.avgGap                    280178.74                       # Average gap between requests
system.mem_ctrls0.pageHitRate                   37.15                       # Row buffer hit rate, read and write combined
system.mem_ctrls0_0.actEnergy             22233253140                       # Energy for activate commands per rank (pJ)
system.mem_ctrls0_0.preEnergy             11817246705                       # Energy for precharge commands per rank (pJ)
system.mem_ctrls0_0.readEnergy            24937242540                       # Energy for read commands per rank (pJ)
system.mem_ctrls0_0.writeEnergy            7670059200                       # Energy for write commands per rank (pJ)
system.mem_ctrls0_0.refreshEnergy        219846893760.000061                       # Energy for refresh commands per rank (pJ)
system.mem_ctrls0_0.actBackEnergy        163670014890                       # Energy for active background per rank (pJ)
system.mem_ctrls0_0.preBackEnergy          5441515200                       # Energy for precharge background per rank (pJ)
system.mem_ctrls0_0.actPowerDownEnergy   919586071290                       # Energy for active power-down per rank (pJ)
system.mem_ctrls0_0.prePowerDownEnergy   131711956800                       # Energy for precharge power-down per rank (pJ)
system.mem_ctrls0_0.selfRefreshEnergy     13080561855                       # Energy for self refresh per rank (pJ)
system.mem_ctrls0_0.totalEnergy          1520025171240                       # Total energy per rank (pJ)
system.mem_ctrls0_0.averagePower           548.625538                       # Core power per rank (mW)
system.mem_ctrls0_0.totalIdleTime        2397442088965                       # Total Idle time Per DRAM Rank
system.mem_ctrls0_0.memoryStateTime::IDLE   3925334627                       # Time in different power states
system.mem_ctrls0_0.memoryStateTime::REF  93044184000                       # Time in different power states
system.mem_ctrls0_0.memoryStateTime::SREF  37806339020                       # Time in different power states
system.mem_ctrls0_0.memoryStateTime::PRE_PDN 343000096926                       # Time in different power states
system.mem_ctrls0_0.memoryStateTime::ACT 276193720624                       # Time in different power states
system.mem_ctrls0_0.memoryStateTime::ACT_PDN 2016636247501                       # Time in different power states
system.mem_ctrls0_1.actEnergy             22128787800                       # Energy for activate commands per rank (pJ)
system.mem_ctrls0_1.preEnergy             11761714470                       # Energy for precharge commands per rank (pJ)
system.mem_ctrls0_1.readEnergy            24754986900                       # Energy for read commands per rank (pJ)
system.mem_ctrls0_1.writeEnergy            7603697340                       # Energy for write commands per rank (pJ)
system.mem_ctrls0_1.refreshEnergy        219895450320.000061                       # Energy for refresh commands per rank (pJ)
system.mem_ctrls0_1.actBackEnergy        163433875290                       # Energy for active background per rank (pJ)
system.mem_ctrls0_1.preBackEnergy          5457144480                       # Energy for precharge background per rank (pJ)
system.mem_ctrls0_1.actPowerDownEnergy   916761088020                       # Energy for active power-down per rank (pJ)
system.mem_ctrls0_1.prePowerDownEnergy   133788463200                       # Energy for precharge power-down per rank (pJ)
system.mem_ctrls0_1.selfRefreshEnergy     13526919780                       # Energy for self refresh per rank (pJ)
system.mem_ctrls0_1.totalEnergy          1519143126930                       # Total energy per rank (pJ)
system.mem_ctrls0_1.averagePower           548.307180                       # Core power per rank (mW)
system.mem_ctrls0_1.totalIdleTime        2397923772728                       # Total Idle time Per DRAM Rank
system.mem_ctrls0_1.memoryStateTime::IDLE   3994750351                       # Time in different power states
system.mem_ctrls0_1.memoryStateTime::REF  93066092000                       # Time in different power states
system.mem_ctrls0_1.memoryStateTime::SREF  39069658550                       # Time in different power states
system.mem_ctrls0_1.memoryStateTime::PRE_PDN 348407338486                       # Time in different power states
system.mem_ctrls0_1.memoryStateTime::ACT 275621212489                       # Time in different power states
system.mem_ctrls0_1.memoryStateTime::ACT_PDN 2010446870822                       # Time in different power states
system.mem_ctrls1.pwrStateResidencyTicks::UNDEFINED 129723602447430                       # Cumulative time (in ticks) in various power states
system.mem_ctrls1.bytes_read::cpu.data            128                       # Number of bytes read from this memory
system.mem_ctrls1.bytes_read::switch_cpus.inst       696640                       # Number of bytes read from this memory
system.mem_ctrls1.bytes_read::switch_cpus.data    364081472                       # Number of bytes read from this memory
system.mem_ctrls1.bytes_read::switch_cpus_1.inst       192192                       # Number of bytes read from this memory
system.mem_ctrls1.bytes_read::switch_cpus_1.data     81602880                       # Number of bytes read from this memory
system.mem_ctrls1.bytes_read::total         446573312                       # Number of bytes read from this memory
system.mem_ctrls1.bytes_inst_read::switch_cpus.inst       696640                       # Number of instructions bytes read from this memory
system.mem_ctrls1.bytes_inst_read::switch_cpus_1.inst       192192                       # Number of instructions bytes read from this memory
system.mem_ctrls1.bytes_inst_read::total       888832                       # Number of instructions bytes read from this memory
system.mem_ctrls1.bytes_written::writebacks    186962432                       # Number of bytes written to this memory
system.mem_ctrls1.bytes_written::total      186962432                       # Number of bytes written to this memory
system.mem_ctrls1.num_reads::cpu.data               2                       # Number of read requests responded to by this memory
system.mem_ctrls1.num_reads::switch_cpus.inst        10885                       # Number of read requests responded to by this memory
system.mem_ctrls1.num_reads::switch_cpus.data      5688773                       # Number of read requests responded to by this memory
system.mem_ctrls1.num_reads::switch_cpus_1.inst         3003                       # Number of read requests responded to by this memory
system.mem_ctrls1.num_reads::switch_cpus_1.data      1275045                       # Number of read requests responded to by this memory
system.mem_ctrls1.num_reads::total            6977708                       # Number of read requests responded to by this memory
system.mem_ctrls1.num_writes::writebacks      2921288                       # Number of write requests responded to by this memory
system.mem_ctrls1.num_writes::total           2921288                       # Number of write requests responded to by this memory
system.mem_ctrls1.bw_read::cpu.data                46                       # Total read bandwidth from this memory (bytes/s)
system.mem_ctrls1.bw_read::switch_cpus.inst       251440                       # Total read bandwidth from this memory (bytes/s)
system.mem_ctrls1.bw_read::switch_cpus.data    131408610                       # Total read bandwidth from this memory (bytes/s)
system.mem_ctrls1.bw_read::switch_cpus_1.inst        69368                       # Total read bandwidth from this memory (bytes/s)
system.mem_ctrls1.bw_read::switch_cpus_1.data     29453081                       # Total read bandwidth from this memory (bytes/s)
system.mem_ctrls1.bw_read::total            161182544                       # Total read bandwidth from this memory (bytes/s)
system.mem_ctrls1.bw_inst_read::switch_cpus.inst       251440                       # Instruction read bandwidth from this memory (bytes/s)
system.mem_ctrls1.bw_inst_read::switch_cpus_1.inst        69368                       # Instruction read bandwidth from this memory (bytes/s)
system.mem_ctrls1.bw_inst_read::total          320808                       # Instruction read bandwidth from this memory (bytes/s)
system.mem_ctrls1.bw_write::writebacks       67480702                       # Write bandwidth from this memory (bytes/s)
system.mem_ctrls1.bw_write::total            67480702                       # Write bandwidth from this memory (bytes/s)
system.mem_ctrls1.bw_total::writebacks       67480702                       # Total bandwidth to/from this memory (bytes/s)
system.mem_ctrls1.bw_total::cpu.data               46                       # Total bandwidth to/from this memory (bytes/s)
system.mem_ctrls1.bw_total::switch_cpus.inst       251440                       # Total bandwidth to/from this memory (bytes/s)
system.mem_ctrls1.bw_total::switch_cpus.data    131408610                       # Total bandwidth to/from this memory (bytes/s)
system.mem_ctrls1.bw_total::switch_cpus_1.inst        69368                       # Total bandwidth to/from this memory (bytes/s)
system.mem_ctrls1.bw_total::switch_cpus_1.data     29453081                       # Total bandwidth to/from this memory (bytes/s)
system.mem_ctrls1.bw_total::total           228663246                       # Total bandwidth to/from this memory (bytes/s)
system.mem_ctrls1.readReqs                    6977708                       # Number of read requests accepted
system.mem_ctrls1.writeReqs                   2921288                       # Number of write requests accepted
system.mem_ctrls1.readBursts                  6977708                       # Number of DRAM read bursts, including those serviced by the write queue
system.mem_ctrls1.writeBursts                 2921288                       # Number of DRAM write bursts, including those merged in the write queue
system.mem_ctrls1.bytesReadDRAM             446385408                       # Total number of bytes read from DRAM
system.mem_ctrls1.bytesReadWrQ                 187904                       # Total number of bytes read from write queue
system.mem_ctrls1.bytesWritten              186961472                       # Total number of bytes written to DRAM
system.mem_ctrls1.bytesReadSys              446573312                       # Total read bytes from the system interface side
system.mem_ctrls1.bytesWrittenSys           186962432                       # Total written bytes from the system interface side
system.mem_ctrls1.servicedByWrQ                  2936                       # Number of DRAM read bursts serviced by the write queue
system.mem_ctrls1.mergedWrBursts                    0                       # Number of DRAM write bursts merged with an existing one
system.mem_ctrls1.neitherReadNorWriteReqs            0                       # Number of requests that are neither read nor write
system.mem_ctrls1.perBankRdBursts::0           431233                       # Per bank write bursts
system.mem_ctrls1.perBankRdBursts::1           437920                       # Per bank write bursts
system.mem_ctrls1.perBankRdBursts::2           438115                       # Per bank write bursts
system.mem_ctrls1.perBankRdBursts::3           428616                       # Per bank write bursts
system.mem_ctrls1.perBankRdBursts::4           423231                       # Per bank write bursts
system.mem_ctrls1.perBankRdBursts::5           439104                       # Per bank write bursts
system.mem_ctrls1.perBankRdBursts::6           450794                       # Per bank write bursts
system.mem_ctrls1.perBankRdBursts::7           444960                       # Per bank write bursts
system.mem_ctrls1.perBankRdBursts::8           458756                       # Per bank write bursts
system.mem_ctrls1.perBankRdBursts::9           443991                       # Per bank write bursts
system.mem_ctrls1.perBankRdBursts::10          425491                       # Per bank write bursts
system.mem_ctrls1.perBankRdBursts::11          425973                       # Per bank write bursts
system.mem_ctrls1.perBankRdBursts::12          422730                       # Per bank write bursts
system.mem_ctrls1.perBankRdBursts::13          434335                       # Per bank write bursts
system.mem_ctrls1.perBankRdBursts::14          438732                       # Per bank write bursts
system.mem_ctrls1.perBankRdBursts::15          430791                       # Per bank write bursts
system.mem_ctrls1.perBankWrBursts::0           180445                       # Per bank write bursts
system.mem_ctrls1.perBankWrBursts::1           180747                       # Per bank write bursts
system.mem_ctrls1.perBankWrBursts::2           182124                       # Per bank write bursts
system.mem_ctrls1.perBankWrBursts::3           177656                       # Per bank write bursts
system.mem_ctrls1.perBankWrBursts::4           179292                       # Per bank write bursts
system.mem_ctrls1.perBankWrBursts::5           182311                       # Per bank write bursts
system.mem_ctrls1.perBankWrBursts::6           189770                       # Per bank write bursts
system.mem_ctrls1.perBankWrBursts::7           185282                       # Per bank write bursts
system.mem_ctrls1.perBankWrBursts::8           193387                       # Per bank write bursts
system.mem_ctrls1.perBankWrBursts::9           181946                       # Per bank write bursts
system.mem_ctrls1.perBankWrBursts::10          182279                       # Per bank write bursts
system.mem_ctrls1.perBankWrBursts::11          180205                       # Per bank write bursts
system.mem_ctrls1.perBankWrBursts::12          176249                       # Per bank write bursts
system.mem_ctrls1.perBankWrBursts::13          182192                       # Per bank write bursts
system.mem_ctrls1.perBankWrBursts::14          185144                       # Per bank write bursts
system.mem_ctrls1.perBankWrBursts::15          182244                       # Per bank write bursts
system.mem_ctrls1.numRdRetry                        0                       # Number of times read queue was full causing retry
system.mem_ctrls1.numWrRetry                        0                       # Number of times write queue was full causing retry
system.mem_ctrls1.totGap                 2770605492462                       # Total gap between requests
system.mem_ctrls1.readPktSize::0                    0                       # Read request sizes (log2)
system.mem_ctrls1.readPktSize::1                    0                       # Read request sizes (log2)
system.mem_ctrls1.readPktSize::2                    0                       # Read request sizes (log2)
system.mem_ctrls1.readPktSize::3                    0                       # Read request sizes (log2)
system.mem_ctrls1.readPktSize::4                    0                       # Read request sizes (log2)
system.mem_ctrls1.readPktSize::5                    0                       # Read request sizes (log2)
system.mem_ctrls1.readPktSize::6              6977708                       # Read request sizes (log2)
system.mem_ctrls1.writePktSize::0                   0                       # Write request sizes (log2)
system.mem_ctrls1.writePktSize::1                   0                       # Write request sizes (log2)
system.mem_ctrls1.writePktSize::2                   0                       # Write request sizes (log2)
system.mem_ctrls1.writePktSize::3                   0                       # Write request sizes (log2)
system.mem_ctrls1.writePktSize::4                   0                       # Write request sizes (log2)
system.mem_ctrls1.writePktSize::5                   0                       # Write request sizes (log2)
system.mem_ctrls1.writePktSize::6             2921288                       # Write request sizes (log2)
system.mem_ctrls1.rdQLenPdf::0                6700923                       # What read queue length does an incoming req see
system.mem_ctrls1.rdQLenPdf::1                 241250                       # What read queue length does an incoming req see
system.mem_ctrls1.rdQLenPdf::2                  30596                       # What read queue length does an incoming req see
system.mem_ctrls1.rdQLenPdf::3                   2003                       # What read queue length does an incoming req see
system.mem_ctrls1.rdQLenPdf::4                      0                       # What read queue length does an incoming req see
system.mem_ctrls1.rdQLenPdf::5                      0                       # What read queue length does an incoming req see
system.mem_ctrls1.rdQLenPdf::6                      0                       # What read queue length does an incoming req see
system.mem_ctrls1.rdQLenPdf::7                      0                       # What read queue length does an incoming req see
system.mem_ctrls1.rdQLenPdf::8                      0                       # What read queue length does an incoming req see
system.mem_ctrls1.rdQLenPdf::9                      0                       # What read queue length does an incoming req see
system.mem_ctrls1.rdQLenPdf::10                     0                       # What read queue length does an incoming req see
system.mem_ctrls1.rdQLenPdf::11                     0                       # What read queue length does an incoming req see
system.mem_ctrls1.rdQLenPdf::12                     0                       # What read queue length does an incoming req see
system.mem_ctrls1.rdQLenPdf::13                     0                       # What read queue length does an incoming req see
system.mem_ctrls1.rdQLenPdf::14                     0                       # What read queue length does an incoming req see
system.mem_ctrls1.rdQLenPdf::15                     0                       # What read queue length does an incoming req see
system.mem_ctrls1.rdQLenPdf::16                     0                       # What read queue length does an incoming req see
system.mem_ctrls1.rdQLenPdf::17                     0                       # What read queue length does an incoming req see
system.mem_ctrls1.rdQLenPdf::18                     0                       # What read queue length does an incoming req see
system.mem_ctrls1.rdQLenPdf::19                     0                       # What read queue length does an incoming req see
system.mem_ctrls1.rdQLenPdf::20                     0                       # What read queue length does an incoming req see
system.mem_ctrls1.rdQLenPdf::21                     0                       # What read queue length does an incoming req see
system.mem_ctrls1.rdQLenPdf::22                     0                       # What read queue length does an incoming req see
system.mem_ctrls1.rdQLenPdf::23                     0                       # What read queue length does an incoming req see
system.mem_ctrls1.rdQLenPdf::24                     0                       # What read queue length does an incoming req see
system.mem_ctrls1.rdQLenPdf::25                     0                       # What read queue length does an incoming req see
system.mem_ctrls1.rdQLenPdf::26                     0                       # What read queue length does an incoming req see
system.mem_ctrls1.rdQLenPdf::27                     0                       # What read queue length does an incoming req see
system.mem_ctrls1.rdQLenPdf::28                     0                       # What read queue length does an incoming req see
system.mem_ctrls1.rdQLenPdf::29                     0                       # What read queue length does an incoming req see
system.mem_ctrls1.rdQLenPdf::30                     0                       # What read queue length does an incoming req see
system.mem_ctrls1.rdQLenPdf::31                     0                       # What read queue length does an incoming req see
system.mem_ctrls1.wrQLenPdf::0                      2                       # What write queue length does an incoming req see
system.mem_ctrls1.wrQLenPdf::1                      2                       # What write queue length does an incoming req see
system.mem_ctrls1.wrQLenPdf::2                      2                       # What write queue length does an incoming req see
system.mem_ctrls1.wrQLenPdf::3                      2                       # What write queue length does an incoming req see
system.mem_ctrls1.wrQLenPdf::4                      2                       # What write queue length does an incoming req see
system.mem_ctrls1.wrQLenPdf::5                      2                       # What write queue length does an incoming req see
system.mem_ctrls1.wrQLenPdf::6                      2                       # What write queue length does an incoming req see
system.mem_ctrls1.wrQLenPdf::7                      2                       # What write queue length does an incoming req see
system.mem_ctrls1.wrQLenPdf::8                      2                       # What write queue length does an incoming req see
system.mem_ctrls1.wrQLenPdf::9                      2                       # What write queue length does an incoming req see
system.mem_ctrls1.wrQLenPdf::10                     2                       # What write queue length does an incoming req see
system.mem_ctrls1.wrQLenPdf::11                     2                       # What write queue length does an incoming req see
system.mem_ctrls1.wrQLenPdf::12                     2                       # What write queue length does an incoming req see
system.mem_ctrls1.wrQLenPdf::13                     2                       # What write queue length does an incoming req see
system.mem_ctrls1.wrQLenPdf::14                     2                       # What write queue length does an incoming req see
system.mem_ctrls1.wrQLenPdf::15                105483                       # What write queue length does an incoming req see
system.mem_ctrls1.wrQLenPdf::16                109755                       # What write queue length does an incoming req see
system.mem_ctrls1.wrQLenPdf::17                165890                       # What write queue length does an incoming req see
system.mem_ctrls1.wrQLenPdf::18                168945                       # What write queue length does an incoming req see
system.mem_ctrls1.wrQLenPdf::19                169119                       # What write queue length does an incoming req see
system.mem_ctrls1.wrQLenPdf::20                169168                       # What write queue length does an incoming req see
system.mem_ctrls1.wrQLenPdf::21                169184                       # What write queue length does an incoming req see
system.mem_ctrls1.wrQLenPdf::22                169097                       # What write queue length does an incoming req see
system.mem_ctrls1.wrQLenPdf::23                169109                       # What write queue length does an incoming req see
system.mem_ctrls1.wrQLenPdf::24                169258                       # What write queue length does an incoming req see
system.mem_ctrls1.wrQLenPdf::25                169156                       # What write queue length does an incoming req see
system.mem_ctrls1.wrQLenPdf::26                171163                       # What write queue length does an incoming req see
system.mem_ctrls1.wrQLenPdf::27                169412                       # What write queue length does an incoming req see
system.mem_ctrls1.wrQLenPdf::28                169157                       # What write queue length does an incoming req see
system.mem_ctrls1.wrQLenPdf::29                169399                       # What write queue length does an incoming req see
system.mem_ctrls1.wrQLenPdf::30                170293                       # What write queue length does an incoming req see
system.mem_ctrls1.wrQLenPdf::31                168826                       # What write queue length does an incoming req see
system.mem_ctrls1.wrQLenPdf::32                168801                       # What write queue length does an incoming req see
system.mem_ctrls1.wrQLenPdf::33                    41                       # What write queue length does an incoming req see
system.mem_ctrls1.wrQLenPdf::34                     2                       # What write queue length does an incoming req see
system.mem_ctrls1.wrQLenPdf::35                     0                       # What write queue length does an incoming req see
system.mem_ctrls1.wrQLenPdf::36                     0                       # What write queue length does an incoming req see
system.mem_ctrls1.wrQLenPdf::37                     0                       # What write queue length does an incoming req see
system.mem_ctrls1.wrQLenPdf::38                     0                       # What write queue length does an incoming req see
system.mem_ctrls1.wrQLenPdf::39                     0                       # What write queue length does an incoming req see
system.mem_ctrls1.wrQLenPdf::40                     0                       # What write queue length does an incoming req see
system.mem_ctrls1.wrQLenPdf::41                     0                       # What write queue length does an incoming req see
system.mem_ctrls1.wrQLenPdf::42                     0                       # What write queue length does an incoming req see
system.mem_ctrls1.wrQLenPdf::43                     0                       # What write queue length does an incoming req see
system.mem_ctrls1.wrQLenPdf::44                     0                       # What write queue length does an incoming req see
system.mem_ctrls1.wrQLenPdf::45                     0                       # What write queue length does an incoming req see
system.mem_ctrls1.wrQLenPdf::46                     0                       # What write queue length does an incoming req see
system.mem_ctrls1.wrQLenPdf::47                     0                       # What write queue length does an incoming req see
system.mem_ctrls1.wrQLenPdf::48                     0                       # What write queue length does an incoming req see
system.mem_ctrls1.wrQLenPdf::49                     0                       # What write queue length does an incoming req see
system.mem_ctrls1.wrQLenPdf::50                     0                       # What write queue length does an incoming req see
system.mem_ctrls1.wrQLenPdf::51                     0                       # What write queue length does an incoming req see
system.mem_ctrls1.wrQLenPdf::52                     0                       # What write queue length does an incoming req see
system.mem_ctrls1.wrQLenPdf::53                     0                       # What write queue length does an incoming req see
system.mem_ctrls1.wrQLenPdf::54                     0                       # What write queue length does an incoming req see
system.mem_ctrls1.wrQLenPdf::55                     0                       # What write queue length does an incoming req see
system.mem_ctrls1.wrQLenPdf::56                     0                       # What write queue length does an incoming req see
system.mem_ctrls1.wrQLenPdf::57                     0                       # What write queue length does an incoming req see
system.mem_ctrls1.wrQLenPdf::58                     0                       # What write queue length does an incoming req see
system.mem_ctrls1.wrQLenPdf::59                     0                       # What write queue length does an incoming req see
system.mem_ctrls1.wrQLenPdf::60                     0                       # What write queue length does an incoming req see
system.mem_ctrls1.wrQLenPdf::61                     0                       # What write queue length does an incoming req see
system.mem_ctrls1.wrQLenPdf::62                     0                       # What write queue length does an incoming req see
system.mem_ctrls1.wrQLenPdf::63                     0                       # What write queue length does an incoming req see
system.mem_ctrls1.bytesPerActivate::samples      6207462                       # Bytes accessed per row activation
system.mem_ctrls1.bytesPerActivate::mean   102.029863                       # Bytes accessed per row activation
system.mem_ctrls1.bytesPerActivate::gmean    83.821439                       # Bytes accessed per row activation
system.mem_ctrls1.bytesPerActivate::stdev    94.862357                       # Bytes accessed per row activation
system.mem_ctrls1.bytesPerActivate::0-127      4667078     75.18%     75.18% # Bytes accessed per row activation
system.mem_ctrls1.bytesPerActivate::128-255      1076383     17.34%     92.53% # Bytes accessed per row activation
system.mem_ctrls1.bytesPerActivate::256-383       260490      4.20%     96.72% # Bytes accessed per row activation
system.mem_ctrls1.bytesPerActivate::384-511       109011      1.76%     98.48% # Bytes accessed per row activation
system.mem_ctrls1.bytesPerActivate::512-639        56428      0.91%     99.39% # Bytes accessed per row activation
system.mem_ctrls1.bytesPerActivate::640-767        22794      0.37%     99.75% # Bytes accessed per row activation
system.mem_ctrls1.bytesPerActivate::768-895         8258      0.13%     99.89% # Bytes accessed per row activation
system.mem_ctrls1.bytesPerActivate::896-1023         3985      0.06%     99.95% # Bytes accessed per row activation
system.mem_ctrls1.bytesPerActivate::1024-1151         3035      0.05%    100.00% # Bytes accessed per row activation
system.mem_ctrls1.bytesPerActivate::total      6207462                       # Bytes accessed per row activation
system.mem_ctrls1.rdPerTurnAround::samples       168798                       # Reads before turning the bus around for writes
system.mem_ctrls1.rdPerTurnAround::mean     41.320229                       # Reads before turning the bus around for writes
system.mem_ctrls1.rdPerTurnAround::gmean    39.642709                       # Reads before turning the bus around for writes
system.mem_ctrls1.rdPerTurnAround::stdev    60.772835                       # Reads before turning the bus around for writes
system.mem_ctrls1.rdPerTurnAround::0-1023       168797    100.00%    100.00% # Reads before turning the bus around for writes
system.mem_ctrls1.rdPerTurnAround::23552-24575            1      0.00%    100.00% # Reads before turning the bus around for writes
system.mem_ctrls1.rdPerTurnAround::total       168798                       # Reads before turning the bus around for writes
system.mem_ctrls1.wrPerTurnAround::samples       168798                       # Writes before turning the bus around for reads
system.mem_ctrls1.wrPerTurnAround::mean     17.306325                       # Writes before turning the bus around for reads
system.mem_ctrls1.wrPerTurnAround::gmean    17.277448                       # Writes before turning the bus around for reads
system.mem_ctrls1.wrPerTurnAround::stdev     0.990963                       # Writes before turning the bus around for reads
system.mem_ctrls1.wrPerTurnAround::16           59298     35.13%     35.13% # Writes before turning the bus around for reads
system.mem_ctrls1.wrPerTurnAround::17            3811      2.26%     37.39% # Writes before turning the bus around for reads
system.mem_ctrls1.wrPerTurnAround::18          100657     59.63%     97.02% # Writes before turning the bus around for reads
system.mem_ctrls1.wrPerTurnAround::19            4767      2.82%     99.84% # Writes before turning the bus around for reads
system.mem_ctrls1.wrPerTurnAround::20             254      0.15%     99.99% # Writes before turning the bus around for reads
system.mem_ctrls1.wrPerTurnAround::21               9      0.01%    100.00% # Writes before turning the bus around for reads
system.mem_ctrls1.wrPerTurnAround::22               1      0.00%    100.00% # Writes before turning the bus around for reads
system.mem_ctrls1.wrPerTurnAround::28               1      0.00%    100.00% # Writes before turning the bus around for reads
system.mem_ctrls1.wrPerTurnAround::total       168798                       # Writes before turning the bus around for reads
system.mem_ctrls1.totQLat                146569223050                       # Total ticks spent queuing
system.mem_ctrls1.totMemAccLat           277346198050                       # Total ticks spent from burst creation until serviced by the DRAM
system.mem_ctrls1.totBusLat               34873860000                       # Total ticks spent in databus transfers
system.mem_ctrls1.avgQLat                    21014.20                       # Average queueing delay per DRAM burst
system.mem_ctrls1.avgBusLat                   5000.00                       # Average bus latency per DRAM burst
system.mem_ctrls1.avgMemAccLat               39764.20                       # Average memory access latency per DRAM burst
system.mem_ctrls1.avgRdBW                      161.11                       # Average DRAM read bandwidth in MiByte/s
system.mem_ctrls1.avgWrBW                       67.48                       # Average achieved write bandwidth in MiByte/s
system.mem_ctrls1.avgRdBWSys                   161.18                       # Average system read bandwidth in MiByte/s
system.mem_ctrls1.avgWrBWSys                    67.48                       # Average system write bandwidth in MiByte/s
system.mem_ctrls1.peakBW                     12800.00                       # Theoretical peak bandwidth in MiByte/s
system.mem_ctrls1.busUtil                        1.79                       # Data bus utilization in percentage
system.mem_ctrls1.busUtilRead                    1.26                       # Data bus utilization in percentage for reads
system.mem_ctrls1.busUtilWrite                   0.53                       # Data bus utilization in percentage for writes
system.mem_ctrls1.avgRdQLen                      1.02                       # Average read queue length when enqueuing
system.mem_ctrls1.avgWrQLen                     24.75                       # Average write queue length when enqueuing
system.mem_ctrls1.readRowHits                 3636882                       # Number of row buffer hits during reads
system.mem_ctrls1.writeRowHits                  51695                       # Number of row buffer hits during writes
system.mem_ctrls1.readRowHitRate                52.14                       # Row buffer hit rate for reads
system.mem_ctrls1.writeRowHitRate                1.77                       # Row buffer hit rate for writes
system.mem_ctrls1.avgGap                    279887.53                       # Average gap between requests
system.mem_ctrls1.pageHitRate                   37.27                       # Row buffer hit rate, read and write combined
system.mem_ctrls1_0.actEnergy             22153249440                       # Energy for activate commands per rank (pJ)
system.mem_ctrls1_0.preEnergy             11774716140                       # Energy for precharge commands per rank (pJ)
system.mem_ctrls1_0.readEnergy            24946967220                       # Energy for read commands per rank (pJ)
system.mem_ctrls1_0.writeEnergy            7608812940                       # Energy for write commands per rank (pJ)
system.mem_ctrls1_0.refreshEnergy        219751009920.000061                       # Energy for refresh commands per rank (pJ)
system.mem_ctrls1_0.actBackEnergy        163291119360                       # Energy for active background per rank (pJ)
system.mem_ctrls1_0.preBackEnergy          5419703520                       # Energy for precharge background per rank (pJ)
system.mem_ctrls1_0.actPowerDownEnergy   920374934760                       # Energy for active power-down per rank (pJ)
system.mem_ctrls1_0.prePowerDownEnergy   131626284000                       # Energy for precharge power-down per rank (pJ)
system.mem_ctrls1_0.selfRefreshEnergy     12792160965                       # Energy for self refresh per rank (pJ)
system.mem_ctrls1_0.totalEnergy          1519766823165                       # Total energy per rank (pJ)
system.mem_ctrls1_0.averagePower           548.532291                       # Core power per rank (mW)
system.mem_ctrls1_0.totalIdleTime        2398338448098                       # Total Idle time Per DRAM Rank
system.mem_ctrls1_0.memoryStateTime::IDLE   3859134682                       # Time in different power states
system.mem_ctrls1_0.memoryStateTime::REF  93002094000                       # Time in different power states
system.mem_ctrls1_0.memoryStateTime::SREF  37192694860                       # Time in different power states
system.mem_ctrls1_0.memoryStateTime::PRE_PDN 342780049355                       # Time in different power states
system.mem_ctrls1_0.memoryStateTime::ACT 275406245918                       # Time in different power states
system.mem_ctrls1_0.memoryStateTime::ACT_PDN 2018365703883                       # Time in different power states
system.mem_ctrls1_1.actEnergy             22168072080                       # Energy for activate commands per rank (pJ)
system.mem_ctrls1_1.preEnergy             11782602150                       # Energy for precharge commands per rank (pJ)
system.mem_ctrls1_1.readEnergy            24852904860                       # Energy for read commands per rank (pJ)
system.mem_ctrls1_1.writeEnergy            7640232120                       # Energy for write commands per rank (pJ)
system.mem_ctrls1_1.refreshEnergy        219885616080.000061                       # Energy for refresh commands per rank (pJ)
system.mem_ctrls1_1.actBackEnergy        163424201250                       # Energy for active background per rank (pJ)
system.mem_ctrls1_1.preBackEnergy          5460412320                       # Energy for precharge background per rank (pJ)
system.mem_ctrls1_1.actPowerDownEnergy   917103695640                       # Energy for active power-down per rank (pJ)
system.mem_ctrls1_1.prePowerDownEnergy   133490818560                       # Energy for precharge power-down per rank (pJ)
system.mem_ctrls1_1.selfRefreshEnergy     13528583520                       # Energy for self refresh per rank (pJ)
system.mem_ctrls1_1.totalEnergy          1519366181190                       # Total energy per rank (pJ)
system.mem_ctrls1_1.averagePower           548.387687                       # Core power per rank (mW)
system.mem_ctrls1_1.totalIdleTime        2397929946145                       # Total Idle time Per DRAM Rank
system.mem_ctrls1_1.memoryStateTime::IDLE   3993500999                       # Time in different power states
system.mem_ctrls1_1.memoryStateTime::REF  93061926000                       # Time in different power states
system.mem_ctrls1_1.memoryStateTime::SREF  39110424275                       # Time in different power states
system.mem_ctrls1_1.memoryStateTime::PRE_PDN 347634008036                       # Time in different power states
system.mem_ctrls1_1.memoryStateTime::ACT 275620549554                       # Time in different power states
system.mem_ctrls1_1.memoryStateTime::ACT_PDN 2011185513834                       # Time in different power states
system.pwrStateResidencyTicks::UNDEFINED 129723602447430                       # Cumulative time (in ticks) in various power states
system.cpu.branchPred.lookups                       3                       # Number of BP lookups
system.cpu.branchPred.condPredicted                 3                       # Number of conditional branches predicted
system.cpu.branchPred.condIncorrect                 1                       # Number of conditional branches incorrect
system.cpu.branchPred.BTBLookups                    0                       # Number of BTB lookups
system.cpu.branchPred.BTBHits                       0                       # Number of BTB hits
system.cpu.branchPred.BTBCorrect                    0                       # Number of correct BTB predictions (this stat may not work properly.
system.cpu.branchPred.BTBHitPct                   nan                       # BTB Hit Percentage
system.cpu.branchPred.usedRAS                       0                       # Number of times the RAS was used to get a target.
system.cpu.branchPred.RASInCorrect                  0                       # Number of incorrect RAS predictions.
system.cpu.branchPred.indirectLookups               0                       # Number of indirect predictor lookups.
system.cpu.branchPred.indirectHits                  0                       # Number of indirect target hits.
system.cpu.branchPred.indirectMisses                0                       # Number of indirect misses.
system.cpu.branchPredindirectMispredicted            0                       # Number of mispredicted indirect branches.
system.cpu_voltage_domain.voltage                   1                       # Voltage in Volts
system.cpu_clk_domain.clock                       333                       # Clock period in ticks
system.cpu.dtb.fetch_hits                           0                       # ITB hits
system.cpu.dtb.fetch_misses                         0                       # ITB misses
system.cpu.dtb.fetch_acv                            0                       # ITB acv
system.cpu.dtb.fetch_accesses                       0                       # ITB accesses
system.cpu.dtb.read_hits                            2                       # DTB read hits
system.cpu.dtb.read_misses                          0                       # DTB read misses
system.cpu.dtb.read_acv                             0                       # DTB read access violations
system.cpu.dtb.read_accesses                        2                       # DTB read accesses
system.cpu.dtb.write_hits                           0                       # DTB write hits
system.cpu.dtb.write_misses                         0                       # DTB write misses
system.cpu.dtb.write_acv                            0                       # DTB write access violations
system.cpu.dtb.write_accesses                       0                       # DTB write accesses
system.cpu.dtb.data_hits                            2                       # DTB hits
system.cpu.dtb.data_misses                          0                       # DTB misses
system.cpu.dtb.data_acv                             0                       # DTB access violations
system.cpu.dtb.data_accesses                        2                       # DTB accesses
system.cpu.itb.fetch_hits                           3                       # ITB hits
system.cpu.itb.fetch_misses                         0                       # ITB misses
system.cpu.itb.fetch_acv                            0                       # ITB acv
system.cpu.itb.fetch_accesses                       3                       # ITB accesses
system.cpu.itb.read_hits                            0                       # DTB read hits
system.cpu.itb.read_misses                          0                       # DTB read misses
system.cpu.itb.read_acv                             0                       # DTB read access violations
system.cpu.itb.read_accesses                        0                       # DTB read accesses
system.cpu.itb.write_hits                           0                       # DTB write hits
system.cpu.itb.write_misses                         0                       # DTB write misses
system.cpu.itb.write_acv                            0                       # DTB write access violations
system.cpu.itb.write_accesses                       0                       # DTB write accesses
system.cpu.itb.data_hits                            0                       # DTB hits
system.cpu.itb.data_misses                          0                       # DTB misses
system.cpu.itb.data_acv                             0                       # DTB access violations
system.cpu.itb.data_accesses                        0                       # DTB accesses
system.cpu.workload.num_syscalls                    0                       # Number of system calls
system.cpu.pwrStateResidencyTicks::ON    2770605922698                       # Cumulative time (in ticks) in various power states
system.cpu.numCycles                              359                       # number of cpu cycles simulated
system.cpu.numWorkItemsStarted                      0                       # number of work items this cpu started
system.cpu.numWorkItemsCompleted                    0                       # number of work items this cpu completed
system.cpu.fetch.icacheStallCycles                 19                       # Number of cycles fetch is stalled on an Icache miss
system.cpu.fetch.Insts                              9                       # Number of instructions fetch has processed
system.cpu.fetch.Branches                           3                       # Number of branches that fetch encountered
system.cpu.fetch.Cycles                             2                       # Number of cycles fetch has run and was not squashing or blocked
system.cpu.fetch.SquashCycles                       5                       # Number of cycles fetch has spent squashing
system.cpu.fetch.PendingDrainCycles                 3                       # Number of cycles fetch has spent waiting on pipes to drain
system.cpu.fetch.CacheLines                         3                       # Number of cache lines fetched
system.cpu.fetch.IcacheSquashes                     2                       # Number of outstanding Icache misses that were squashed
system.cpu.fetch.rateDist::samples                 26                       # Number of instructions fetched each cycle (Total)
system.cpu.fetch.rateDist::mean              0.346154                       # Number of instructions fetched each cycle (Total)
system.cpu.fetch.rateDist::stdev             1.573336                       # Number of instructions fetched each cycle (Total)
system.cpu.fetch.rateDist::underflows               0      0.00%      0.00% # Number of instructions fetched each cycle (Total)
system.cpu.fetch.rateDist::0                       24     92.31%     92.31% # Number of instructions fetched each cycle (Total)
system.cpu.fetch.rateDist::1                        1      3.85%     96.15% # Number of instructions fetched each cycle (Total)
system.cpu.fetch.rateDist::2                        0      0.00%     96.15% # Number of instructions fetched each cycle (Total)
system.cpu.fetch.rateDist::3                        0      0.00%     96.15% # Number of instructions fetched each cycle (Total)
system.cpu.fetch.rateDist::4                        0      0.00%     96.15% # Number of instructions fetched each cycle (Total)
system.cpu.fetch.rateDist::5                        0      0.00%     96.15% # Number of instructions fetched each cycle (Total)
system.cpu.fetch.rateDist::6                        0      0.00%     96.15% # Number of instructions fetched each cycle (Total)
system.cpu.fetch.rateDist::7                        0      0.00%     96.15% # Number of instructions fetched each cycle (Total)
system.cpu.fetch.rateDist::8                        1      3.85%    100.00% # Number of instructions fetched each cycle (Total)
system.cpu.fetch.rateDist::overflows                0      0.00%    100.00% # Number of instructions fetched each cycle (Total)
system.cpu.fetch.rateDist::min_value                0                       # Number of instructions fetched each cycle (Total)
system.cpu.fetch.rateDist::max_value                8                       # Number of instructions fetched each cycle (Total)
system.cpu.fetch.rateDist::total                   26                       # Number of instructions fetched each cycle (Total)
[...]
system.switch_cpus_1.iq.int_inst_queue_wakeup_accesses    320732403                       # Number of integer instruction queue wakeup accesses
system.switch_cpus_1.iq.fp_inst_queue_reads     69856998                       # Number of floating instruction queue reads
system.switch_cpus_1.iq.fp_inst_queue_writes    112214878                       # Number of floating instruction queue writes
system.switch_cpus_1.iq.fp_inst_queue_wakeup_accesses     28768577                       # Number of floating instruction queue wakeup accesses
system.switch_cpus_1.iq.int_alu_accesses    351424837                       # Number of integer alu accesses
system.switch_cpus_1.iq.fp_alu_accesses      35121932                       # Number of floating point alu accesses
system.switch_cpus_1.iew.lsq.thread0.forwLoads      9389250                       # Number of loads that had data forwarded from stores
system.switch_cpus_1.iew.lsq.thread0.invAddrLoads            0                       # Number of loads ignored due to an invalid address
system.switch_cpus_1.iew.lsq.thread0.squashedLoads     68222728                       # Number of loads squashed
system.switch_cpus_1.iew.lsq.thread0.ignoredResponses        27297                       # Number of memory responses ignored because the instruction is squashed
system.switch_cpus_1.iew.lsq.thread0.memOrderViolation        10981                       # Number of memory ordering violations
system.switch_cpus_1.iew.lsq.thread0.squashedStores     29534424                       # Number of stores squashed
system.switch_cpus_1.iew.lsq.thread0.invAddrSwpfs            0                       # Number of software prefetches ignored due to an invalid address
system.switch_cpus_1.iew.lsq.thread0.blockedLoads            0                       # Number of blocked loads due to partial load-store forwarding
system.switch_cpus_1.iew.lsq.thread0.rescheduledLoads          369                       # Number of loads that were rescheduled
system.switch_cpus_1.iew.lsq.thread0.cacheBlocked      2633502                       # Number of times an access to memory failed due to the cache being blocked
system.switch_cpus_1.iew.iewIdleCycles              0                       # Number of cycles IEW is idle
system.switch_cpus_1.iew.iewSquashCycles      3806938                       # Number of cycles IEW is squashing
system.switch_cpus_1.iew.iewBlockCycles     180295492                       # Number of cycles IEW is blocking
system.switch_cpus_1.iew.iewUnblockCycles    100060683                       # Number of cycles IEW is unblocking
system.switch_cpus_1.iew.iewDispatchedInsts    487408379                       # Number of instructions dispatched to IQ
system.switch_cpus_1.iew.iewDispSquashedInsts       128252                       # Number of squashed instructions skipped by dispatch
system.switch_cpus_1.iew.iewDispLoadInsts    115949984                       # Number of dispatched load instructions
system.switch_cpus_1.iew.iewDispStoreInsts     58763251                       # Number of dispatched store instructions
system.switch_cpus_1.iew.iewDispNonSpecInsts       528729                       # Number of dispatched non-speculative instructions
system.switch_cpus_1.iew.iewIQFullEvents      1252074                       # Number of times the IQ has become full, causing a stall
system.switch_cpus_1.iew.iewLSQFullEvents     98546315                       # Number of times the LSQ has become full, causing a stall
system.switch_cpus_1.iew.memOrderViolationEvents        10981                       # Number of memory order violations
system.switch_cpus_1.iew.predictedTakenIncorrect       749469                       # Number of branches that were predicted taken incorrectly
system.switch_cpus_1.iew.predictedNotTakenIncorrect      1142591                       # Number of branches that were predicted not taken incorrectly
system.switch_cpus_1.iew.branchMispredicts      1892060                       # Number of branch mispredicts detected at execute
system.switch_cpus_1.iew.iewExecutedInsts    375340328                       # Number of executed instructions
system.switch_cpus_1.iew.iewExecLoadInsts    102572433                       # Number of load instructions executed
system.switch_cpus_1.iew.iewExecSquashedInsts      4145006                       # Number of squashed instructions skipped in execute
system.switch_cpus_1.iew.exec_swp                   0                       # number of swp insts executed
system.switch_cpus_1.iew.exec_nop            23213301                       # number of nop insts executed
system.switch_cpus_1.iew.exec_refs          154877471                       # number of memory reference insts executed
system.switch_cpus_1.iew.exec_branches       72539096                       # Number of branches executed
system.switch_cpus_1.iew.exec_stores         52305038                       # Number of stores executed
system.switch_cpus_1.iew.exec_rate           0.484608                       # Inst execution rate
system.switch_cpus_1.iew.wb_sent            370002008                       # cumulative count of insts sent to commit
system.switch_cpus_1.iew.wb_count           349500980                       # cumulative count of insts written-back
system.switch_cpus_1.iew.wb_producers       176956695                       # num instructions producing a value
system.switch_cpus_1.iew.wb_consumers       259672319                       # num instructions consuming a value
system.switch_cpus_1.iew.wb_rate             0.451246                       # insts written-back per cycle
system.switch_cpus_1.iew.wb_fanout           0.681462                       # average fanout of values written-back
system.switch_cpus_1.commit.commitSquashedInsts    230803707                       # The number of squashed insts skipped by commit
system.switch_cpus_1.commit.commitNonSpecStalls       665598                       # The number of times commit has been forced to stall to communicate backwards
system.switch_cpus_1.commit.branchMispredicts      1453544                       # The number of times a branch was mispredicted
system.switch_cpus_1.commit.committed_per_cycle::samples    740141963                       # Number of insts commited each cycle
system.switch_cpus_1.commit.committed_per_cycle::mean     0.288586                       # Number of insts commited each cycle
system.switch_cpus_1.commit.committed_per_cycle::stdev     1.302703                       # Number of insts commited each cycle
system.switch_cpus_1.commit.committed_per_cycle::underflows            0      0.00%      0.00% # Number of insts commited each cycle
system.switch_cpus_1.commit.committed_per_cycle::0    685960143     92.68%     92.68% # Number of insts commited each cycle
system.switch_cpus_1.commit.committed_per_cycle::1     19877962      2.69%     95.37% # Number of insts commited each cycle
system.switch_cpus_1.commit.committed_per_cycle::2      6009453      0.81%     96.18% # Number of insts commited each cycle
system.switch_cpus_1.commit.committed_per_cycle::3      3708311      0.50%     96.68% # Number of insts commited each cycle
system.switch_cpus_1.commit.committed_per_cycle::4      3294528      0.45%     97.12% # Number of insts commited each cycle
system.switch_cpus_1.commit.committed_per_cycle::5      2544667      0.34%     97.47% # Number of insts commited each cycle
system.switch_cpus_1.commit.committed_per_cycle::6      1913418      0.26%     97.73% # Number of insts commited each cycle
system.switch_cpus_1.commit.committed_per_cycle::7      1477194      0.20%     97.93% # Number of insts commited each cycle
system.switch_cpus_1.commit.committed_per_cycle::8     15356287      2.07%    100.00% # Number of insts commited each cycle
system.switch_cpus_1.commit.committed_per_cycle::overflows            0      0.00%    100.00% # Number of insts commited each cycle
system.switch_cpus_1.commit.committed_per_cycle::min_value            0                       # Number of insts commited each cycle
system.switch_cpus_1.commit.committed_per_cycle::max_value            8                       # Number of insts commited each cycle
system.switch_cpus_1.commit.committed_per_cycle::total    740141963                       # Number of insts commited each cycle
system.switch_cpus_1.commit.committedInsts    213594410                       # Number of instructions committed
system.switch_cpus_1.commit.committedOps    213594410                       # Number of ops (including micro ops) committed
system.switch_cpus_1.commit.swp_count               0                       # Number of s/w prefetches committed
system.switch_cpus_1.commit.refs             76956073                       # Number of memory references committed
system.switch_cpus_1.commit.loads            47727246                       # Number of loads committed
system.switch_cpus_1.commit.membars            332799                       # Number of memory barriers committed
system.switch_cpus_1.commit.branches         42872050                       # Number of branches committed
system.switch_cpus_1.commit.fp_insts         19258208                       # Number of committed floating point instructions.
system.switch_cpus_1.commit.int_insts       185197309                       # Number of committed integer instructions.
system.switch_cpus_1.commit.function_calls      6276853                       # Number of function calls committed.
system.switch_cpus_1.commit.op_class_0::No_OpClass     13768422      6.45%      6.45% # Class of committed instruction
system.switch_cpus_1.commit.op_class_0::IntAlu    110964867     51.95%     58.40% # Class of committed instruction
system.switch_cpus_1.commit.op_class_0::IntMult        87084      0.04%     58.44% # Class of committed instruction
system.switch_cpus_1.commit.op_class_0::IntDiv            0      0.00%     58.44% # Class of committed instruction
system.switch_cpus_1.commit.op_class_0::FloatAdd      6284834      2.94%     61.38% # Class of committed instruction
system.switch_cpus_1.commit.op_class_0::FloatCmp      4706081      2.20%     63.58% # Class of committed instruction
system.switch_cpus_1.commit.op_class_0::FloatCvt       352967      0.17%     63.75% # Class of committed instruction
system.switch_cpus_1.commit.op_class_0::FloatMult        54220      0.03%     63.77% # Class of committed instruction
system.switch_cpus_1.commit.op_class_0::FloatMultAcc            0      0.00%     63.77% # Class of committed instruction
system.switch_cpus_1.commit.op_class_0::FloatDiv        87048      0.04%     63.82% # Class of committed instruction
system.switch_cpus_1.commit.op_class_0::FloatMisc            0      0.00%     63.82% # Class of committed instruction
system.switch_cpus_1.commit.op_class_0::FloatSqrt           15      0.00%     63.82% # Class of committed instruction
system.switch_cpus_1.commit.op_class_0::SimdAdd            0      0.00%     63.82% # Class of committed instruction
system.switch_cpus_1.commit.op_class_0::SimdAddAcc            0      0.00%     63.82% # Class of committed instruction
system.switch_cpus_1.commit.op_class_0::SimdAlu            0      0.00%     63.82% # Class of committed instruction
system.switch_cpus_1.commit.op_class_0::SimdCmp            0      0.00%     63.82% # Class of committed instruction
system.switch_cpus_1.commit.op_class_0::SimdCvt            0      0.00%     63.82% # Class of committed instruction
system.switch_cpus_1.commit.op_class_0::SimdMisc            0      0.00%     63.82% # Class of committed instruction
system.switch_cpus_1.commit.op_class_0::SimdMult            0      0.00%     63.82% # Class of committed instruction
system.switch_cpus_1.commit.op_class_0::SimdMultAcc            0      0.00%     63.82% # Class of committed instruction
system.switch_cpus_1.commit.op_class_0::SimdShift            0      0.00%     63.82% # Class of committed instruction
system.switch_cpus_1.commit.op_class_0::SimdShiftAcc            0      0.00%     63.82% # Class of committed instruction
system.switch_cpus_1.commit.op_class_0::SimdSqrt            0      0.00%     63.82% # Class of committed instruction
system.switch_cpus_1.commit.op_class_0::SimdFloatAdd            0      0.00%     63.82% # Class of committed instruction
system.switch_cpus_1.commit.op_class_0::SimdFloatAlu            0      0.00%     63.82% # Class of committed instruction
system.switch_cpus_1.commit.op_class_0::SimdFloatCmp            0      0.00%     63.82% # Class of committed instruction
system.switch_cpus_1.commit.op_class_0::SimdFloatCvt            0      0.00%     63.82% # Class of committed instruction
system.switch_cpus_1.commit.op_class_0::SimdFloatDiv            0      0.00%     63.82% # Class of committed instruction
system.switch_cpus_1.commit.op_class_0::SimdFloatMisc            0      0.00%     63.82% # Class of committed instruction
system.switch_cpus_1.commit.op_class_0::SimdFloatMult            0      0.00%     63.82% # Class of committed instruction
system.switch_cpus_1.commit.op_class_0::SimdFloatMultAcc            0      0.00%     63.82% # Class of committed instruction
system.switch_cpus_1.commit.op_class_0::SimdFloatSqrt            0      0.00%     63.82% # Class of committed instruction
system.switch_cpus_1.commit.op_class_0::MemRead     41999437     19.66%     83.48% # Class of committed instruction
system.switch_cpus_1.commit.op_class_0::MemWrite     27516392     12.88%     96.36% # Class of committed instruction
system.switch_cpus_1.commit.op_class_0::FloatMemRead      6060608      2.84%     99.20% # Class of committed instruction
system.switch_cpus_1.commit.op_class_0::FloatMemWrite      1712435      0.80%    100.00% # Class of committed instruction
system.switch_cpus_1.commit.op_class_0::IprAccess            0      0.00%    100.00% # Class of committed instruction
system.switch_cpus_1.commit.op_class_0::InstPrefetch            0      0.00%    100.00% # Class of committed instruction
system.switch_cpus_1.commit.op_class_0::total    213594410                       # Class of committed instruction
system.switch_cpus_1.commit.bw_lim_events     15356287                       # number cycles where commit BW limit reached
system.switch_cpus_1.rob.rob_reads         1138702446                       # The number of ROB reads
system.switch_cpus_1.rob.rob_writes         920725741                       # The number of ROB writes
system.switch_cpus_1.timesIdled                 23481                       # Number of times that the entire CPU went into an idle state and unscheduled itself
system.switch_cpus_1.idleCycles               2508549                       # Total number of cycles that the CPU has spent unscheduled due to idling
system.switch_cpus_1.committedInsts         200000000                       # Number of Instructions Simulated
system.switch_cpus_1.committedOps           200000000                       # Number of Ops (including micro ops) Simulated
system.switch_cpus_1.cpi                     3.872620                       # CPI: Cycles Per Instruction
system.switch_cpus_1.cpi_total               3.872620                       # CPI: Total CPI of All Threads
system.switch_cpus_1.ipc                     0.258223                       # IPC: Instructions Per Cycle
system.switch_cpus_1.ipc_total               0.258223                       # IPC: Total IPC of All Threads
system.switch_cpus_1.int_regfile_reads      476019162                       # number of integer regfile reads
system.switch_cpus_1.int_regfile_writes     219114316                       # number of integer regfile writes
system.switch_cpus_1.fp_regfile_reads        26328426                       # number of floating regfile reads
system.switch_cpus_1.fp_regfile_writes       19801765                       # number of floating regfile writes
system.switch_cpus_1.misc_regfile_reads        925570                       # number of misc regfile reads
system.switch_cpus_1.misc_regfile_writes       752604                       # number of misc regfile writes
system.tol3bus.snoop_filter.tot_requests     44292224                       # Total number of requests made to the snoop filter.
system.tol3bus.snoop_filter.hit_single_requests     22146690                       # Number of requests hitting in the snoop filter with a single holder of the requested data.
system.tol3bus.snoop_filter.hit_multi_requests            0                       # Number of requests hitting in the snoop filter with multiple (>1) holders of the requested data.
system.tol3bus.snoop_filter.tot_snoops          18351                       # Total number of snoops made to the snoop filter.
system.tol3bus.snoop_filter.hit_single_snoops        18351                       # Number of snoops hitting in the snoop filter with a single holder of the requested data.
system.tol3bus.snoop_filter.hit_multi_snoops            0                       # Number of snoops hitting in the snoop filter with multiple (>1) holders of the requested data.
system.tol3bus.pwrStateResidencyTicks::UNDEFINED 129723602447430                       # Cumulative time (in ticks) in various power states
system.tol3bus.trans_dist::ReadResp          18858132                       # Transaction distribution
system.tol3bus.trans_dist::WritebackDirty     16951461                       # Transaction distribution
system.tol3bus.trans_dist::CleanEvict        19070201                       # Transaction distribution
system.tol3bus.trans_dist::UpgradeReq            2045                       # Transaction distribution
system.tol3bus.trans_dist::UpgradeResp           2045                       # Transaction distribution
system.tol3bus.trans_dist::ReadExReq          3287402                       # Transaction distribution
system.tol3bus.trans_dist::ReadExResp         3287402                       # Transaction distribution
system.tol3bus.trans_dist::ReadSharedReq     18858132                       # Transaction distribution
system.tol3bus.pkt_count_system.cpu.l2.mem_side::system.l3.cpu_side     66439803                       # Packet count per connected master and slave (bytes)
system.tol3bus.pkt_size_system.cpu.l2.mem_side::system.l3.cpu_side   2127979648                       # Cumulative packet size per connected master and slave (bytes)
system.tol3bus.snoops                        13877017                       # Total snoops (count)
system.tol3bus.snoopTraffic                 374228032                       # Total snoop traffic (bytes)
system.tol3bus.snoop_fanout::samples         36024596                       # Request fanout histogram
system.tol3bus.snoop_fanout::mean            0.000509                       # Request fanout histogram
system.tol3bus.snoop_fanout::stdev           0.022564                       # Request fanout histogram
system.tol3bus.snoop_fanout::underflows             0      0.00%      0.00% # Request fanout histogram
system.tol3bus.snoop_fanout::0               36006245     99.95%     99.95% # Request fanout histogram
system.tol3bus.snoop_fanout::1                  18351      0.05%    100.00% # Request fanout histogram
system.tol3bus.snoop_fanout::overflows              0      0.00%    100.00% # Request fanout histogram
system.tol3bus.snoop_fanout::min_value              0                       # Request fanout histogram
system.tol3bus.snoop_fanout::max_value              1                       # Request fanout histogram
system.tol3bus.snoop_fanout::total           36024596                       # Request fanout histogram
system.tol3bus.reqLayer0.occupancy        18446991876                       # Layer occupancy (ticks)
system.tol3bus.reqLayer0.utilization              0.7                       # Layer utilization (%)
system.tol3bus.respLayer0.occupancy       14749606629                       # Layer occupancy (ticks)
system.tol3bus.respLayer0.utilization             0.5                       # Layer utilization (%)

---------- End Simulation Statistics   ----------
