
---------- Begin Simulation Statistics ----------
sim_seconds                                  1.282995                       # Number of seconds simulated
sim_ticks                                1282994579142                       # Number of ticks simulated
final_tick                               118517691011328                       # Number of ticks from beginning of simulation (restored from checkpoints and never reset)
sim_freq                                 1000000000000                       # Frequency of simulated ticks
host_inst_rate                                 599533                       # Simulator instruction rate (inst/s)
host_op_rate                                   599533                       # Simulator op (including micro ops) rate (op/s)
host_tick_rate                              640998031                       # Simulator tick rate (ticks/s)
host_mem_usage                                2588596                       # Number of bytes of host memory used
host_seconds                                  2001.56                       # Real time elapsed on the host
sim_insts                                  1200000007                       # Number of instructions simulated
sim_ops                                    1200000007                       # Number of ops (including micro ops) simulated
system.voltage_domain.voltage                       1                       # Voltage in Volts
system.clk_domain.clock                          1000                       # Clock period in ticks
system.mem_ctrls0.pwrStateResidencyTicks::UNDEFINED 118517691011328                       # Cumulative time (in ticks) in various power states
system.mem_ctrls0.bytes_read::cpu.inst             64                       # Number of bytes read from this memory
system.mem_ctrls0.bytes_read::switch_cpus.inst        21888                       # Number of bytes read from this memory
system.mem_ctrls0.bytes_read::switch_cpus.data    118777792                       # Number of bytes read from this memory
system.mem_ctrls0.bytes_read::switch_cpus_1.inst          384                       # Number of bytes read from this memory
system.mem_ctrls0.bytes_read::switch_cpus_1.data     21624000                       # Number of bytes read from this memory
system.mem_ctrls0.bytes_read::total         140424128                       # Number of bytes read from this memory
system.mem_ctrls0.bytes_inst_read::cpu.inst           64                       # Number of instructions bytes read from this memory
system.mem_ctrls0.bytes_inst_read::switch_cpus.inst        21888                       # Number of instructions bytes read from this memory
system.mem_ctrls0.bytes_inst_read::switch_cpus_1.inst          384                       # Number of instructions bytes read from this memory
system.mem_ctrls0.bytes_inst_read::total        22336                       # Number of instructions bytes read from this memory
system.mem_ctrls0.bytes_written::writebacks     55949376                       # Number of bytes written to this memory
system.mem_ctrls0.bytes_written::total       55949376                       # Number of bytes written to this memory
system.mem_ctrls0.num_reads::cpu.inst               1                       # Number of read requests responded to by this memory
system.mem_ctrls0.num_reads::switch_cpus.inst          342                       # Number of read requests responded to by this memory
system.mem_ctrls0.num_reads::switch_cpus.data      1855903                       # Number of read requests responded to by this memory
system.mem_ctrls0.num_reads::switch_cpus_1.inst            6                       # Number of read requests responded to by this memory
system.mem_ctrls0.num_reads::switch_cpus_1.data       337875                       # Number of read requests responded to by this memory
system.mem_ctrls0.num_reads::total            2194127                       # Number of read requests responded to by this memory
system.mem_ctrls0.num_writes::writebacks       874209                       # Number of write requests responded to by this memory
system.mem_ctrls0.num_writes::total            874209                       # Number of write requests responded to by this memory
system.mem_ctrls0.bw_read::cpu.inst                50                       # Total read bandwidth from this memory (bytes/s)
system.mem_ctrls0.bw_read::switch_cpus.inst        17060                       # Total read bandwidth from this memory (bytes/s)
system.mem_ctrls0.bw_read::switch_cpus.data     92578561                       # Total read bandwidth from this memory (bytes/s)
system.mem_ctrls0.bw_read::switch_cpus_1.inst          299                       # Total read bandwidth from this memory (bytes/s)
system.mem_ctrls0.bw_read::switch_cpus_1.data     16854319                       # Total read bandwidth from this memory (bytes/s)
system.mem_ctrls0.bw_read::total            109450289                       # Total read bandwidth from this memory (bytes/s)
system.mem_ctrls0.bw_inst_read::cpu.inst           50                       # Instruction read bandwidth from this memory (bytes/s)
system.mem_ctrls0.bw_inst_read::switch_cpus.inst        17060                       # Instruction read bandwidth from this memory (bytes/s)
system.mem_ctrls0.bw_inst_read::switch_cpus_1.inst          299                       # Instruction read bandwidth from this memory (bytes/s)
system.mem_ctrls0.bw_inst_read::total           17409                       # Instruction read bandwidth from this memory (bytes/s)
system.mem_ctrls0.bw_write::writebacks       43608427                       # Write bandwidth from this memory (bytes/s)
system.mem_ctrls0.bw_write::total            43608427                       # Write bandwidth from this memory (bytes/s)
system.mem_ctrls0.bw_total::writebacks       43608427                       # Total bandwidth to/from this memory (bytes/s)
system.mem_ctrls0.bw_total::cpu.inst               50                       # Total bandwidth to/from this memory (bytes/s)
system.mem_ctrls0.bw_total::switch_cpus.inst        17060                       # Total bandwidth to/from this memory (bytes/s)
system.mem_ctrls0.bw_total::switch_cpus.data     92578561                       # Total bandwidth to/from this memory (bytes/s)
system.mem_ctrls0.bw_total::switch_cpus_1.inst          299                       # Total bandwidth to/from this memory (bytes/s)
system.mem_ctrls0.bw_total::switch_cpus_1.data     16854319                       # Total bandwidth to/from this memory (bytes/s)
system.mem_ctrls0.bw_total::total           153058717                       # Total bandwidth to/from this memory (bytes/s)
system.mem_ctrls0.readReqs                    2194127                       # Number of read requests accepted
system.mem_ctrls0.writeReqs                    874209                       # Number of write requests accepted
system.mem_ctrls0.readBursts                  2194127                       # Number of DRAM read bursts, including those serviced by the write queue
system.mem_ctrls0.writeBursts                  874209                       # Number of DRAM write bursts, including those merged in the write queue
system.mem_ctrls0.bytesReadDRAM             140422208                       # Total number of bytes read from DRAM
system.mem_ctrls0.bytesReadWrQ                   1920                       # Total number of bytes read from write queue
system.mem_ctrls0.bytesWritten               55948416                       # Total number of bytes written to DRAM
system.mem_ctrls0.bytesReadSys              140424128                       # Total read bytes from the system interface side
system.mem_ctrls0.bytesWrittenSys            55949376                       # Total written bytes from the system interface side
system.mem_ctrls0.servicedByWrQ                    30                       # Number of DRAM read bursts serviced by the write queue
system.mem_ctrls0.mergedWrBursts                    0                       # Number of DRAM write bursts merged with an existing one
system.mem_ctrls0.neitherReadNorWriteReqs            0                       # Number of requests that are neither read nor write
system.mem_ctrls0.perBankRdBursts::0           136857                       # Per bank write bursts
system.mem_ctrls0.perBankRdBursts::1           137349                       # Per bank write bursts
system.mem_ctrls0.perBankRdBursts::2           137680                       # Per bank write bursts
system.mem_ctrls0.perBankRdBursts::3           136913                       # Per bank write bursts
system.mem_ctrls0.perBankRdBursts::4           137558                       # Per bank write bursts
system.mem_ctrls0.perBankRdBursts::5           137157                       # Per bank write bursts
system.mem_ctrls0.perBankRdBursts::6           137534                       # Per bank write bursts
system.mem_ctrls0.perBankRdBursts::7           136679                       # Per bank write bursts
system.mem_ctrls0.perBankRdBursts::8           137303                       # Per bank write bursts
system.mem_ctrls0.perBankRdBursts::9           137412                       # Per bank write bursts
system.mem_ctrls0.perBankRdBursts::10          137057                       # Per bank write bursts
system.mem_ctrls0.perBankRdBursts::11          137188                       # Per bank write bursts
system.mem_ctrls0.perBankRdBursts::12          137197                       # Per bank write bursts
system.mem_ctrls0.perBankRdBursts::13          136358                       # Per bank write bursts
system.mem_ctrls0.perBankRdBursts::14          136778                       # Per bank write bursts
system.mem_ctrls0.perBankRdBursts::15          137077                       # Per bank write bursts
system.mem_ctrls0.perBankWrBursts::0            54566                       # Per bank write bursts
system.mem_ctrls0.perBankWrBursts::1            54366                       # Per bank write bursts
system.mem_ctrls0.perBankWrBursts::2            54637                       # Per bank write bursts
system.mem_ctrls0.perBankWrBursts::3            54642                       # Per bank write bursts
system.mem_ctrls0.perBankWrBursts::4            54464                       # Per bank write bursts
system.mem_ctrls0.perBankWrBursts::5            54647                       # Per bank write bursts
system.mem_ctrls0.perBankWrBursts::6            55298                       # Per bank write bursts
system.mem_ctrls0.perBankWrBursts::7            54536                       # Per bank write bursts
system.mem_ctrls0.perBankWrBursts::8            54759                       # Per bank write bursts
system.mem_ctrls0.perBankWrBursts::9            54801                       # Per bank write bursts
system.mem_ctrls0.perBankWrBursts::10           54748                       # Per bank write bursts
system.mem_ctrls0.perBankWrBursts::11           54578                       # Per bank write bursts
system.mem_ctrls0.perBankWrBursts::12           54802                       # Per bank write bursts
system.mem_ctrls0.perBankWrBursts::13           54532                       # Per bank write bursts
system.mem_ctrls0.perBankWrBursts::14           54342                       # Per bank write bursts
system.mem_ctrls0.perBankWrBursts::15           54476                       # Per bank write bursts
system.mem_ctrls0.numRdRetry                        0                       # Number of times read queue was full causing retry
system.mem_ctrls0.numWrRetry                        0                       # Number of times write queue was full causing retry
system.mem_ctrls0.totGap                 1282994340714                       # Total gap between requests
system.mem_ctrls0.readPktSize::0                    0                       # Read request sizes (log2)
system.mem_ctrls0.readPktSize::1                    0                       # Read request sizes (log2)
system.mem_ctrls0.readPktSize::2                    0                       # Read request sizes (log2)
system.mem_ctrls0.readPktSize::3                    0                       # Read request sizes (log2)
system.mem_ctrls0.readPktSize::4                    0                       # Read request sizes (log2)
system.mem_ctrls0.readPktSize::5                    0                       # Read request sizes (log2)
system.mem_ctrls0.readPktSize::6              2194127                       # Read request sizes (log2)
system.mem_ctrls0.writePktSize::0                   0                       # Write request sizes (log2)
system.mem_ctrls0.writePktSize::1                   0                       # Write request sizes (log2)
system.mem_ctrls0.writePktSize::2                   0                       # Write request sizes (log2)
system.mem_ctrls0.writePktSize::3                   0                       # Write request sizes (log2)
system.mem_ctrls0.writePktSize::4                   0                       # Write request sizes (log2)
system.mem_ctrls0.writePktSize::5                   0                       # Write request sizes (log2)
system.mem_ctrls0.writePktSize::6              874209                       # Write request sizes (log2)
system.mem_ctrls0.rdQLenPdf::0                2103849                       # What read queue length does an incoming req see
system.mem_ctrls0.rdQLenPdf::1                  74715                       # What read queue length does an incoming req see
system.mem_ctrls0.rdQLenPdf::2                  13808                       # What read queue length does an incoming req see
system.mem_ctrls0.rdQLenPdf::3                   1725                       # What read queue length does an incoming req see
system.mem_ctrls0.rdQLenPdf::4                      0                       # What read queue length does an incoming req see
system.mem_ctrls0.rdQLenPdf::5                      0                       # What read queue length does an incoming req see
system.mem_ctrls0.rdQLenPdf::6                      0                       # What read queue length does an incoming req see
system.mem_ctrls0.rdQLenPdf::7                      0                       # What read queue length does an incoming req see
system.mem_ctrls0.rdQLenPdf::8                      0                       # What read queue length does an incoming req see
system.mem_ctrls0.rdQLenPdf::9                      0                       # What read queue length does an incoming req see
system.mem_ctrls0.rdQLenPdf::10                     0                       # What read queue length does an incoming req see
system.mem_ctrls0.rdQLenPdf::11                     0                       # What read queue length does an incoming req see
system.mem_ctrls0.rdQLenPdf::12                     0                       # What read queue length does an incoming req see
system.mem_ctrls0.rdQLenPdf::13                     0                       # What read queue length does an incoming req see
system.mem_ctrls0.rdQLenPdf::14                     0                       # What read queue length does an incoming req see
system.mem_ctrls0.rdQLenPdf::15                     0                       # What read queue length does an incoming req see
system.mem_ctrls0.rdQLenPdf::16                     0                       # What read queue length does an incoming req see
system.mem_ctrls0.rdQLenPdf::17                     0                       # What read queue length does an incoming req see
system.mem_ctrls0.rdQLenPdf::18                     0                       # What read queue length does an incoming req see
system.mem_ctrls0.rdQLenPdf::19                     0                       # What read queue length does an incoming req see
system.mem_ctrls0.rdQLenPdf::20                     0                       # What read queue length does an incoming req see
system.mem_ctrls0.rdQLenPdf::21                     0                       # What read queue length does an incoming req see
system.mem_ctrls0.rdQLenPdf::22                     0                       # What read queue length does an incoming req see
system.mem_ctrls0.rdQLenPdf::23                     0                       # What read queue length does an incoming req see
system.mem_ctrls0.rdQLenPdf::24                     0                       # What read queue length does an incoming req see
system.mem_ctrls0.rdQLenPdf::25                     0                       # What read queue length does an incoming req see
system.mem_ctrls0.rdQLenPdf::26                     0                       # What read queue length does an incoming req see
system.mem_ctrls0.rdQLenPdf::27                     0                       # What read queue length does an incoming req see
system.mem_ctrls0.rdQLenPdf::28                     0                       # What read queue length does an incoming req see
system.mem_ctrls0.rdQLenPdf::29                     0                       # What read queue length does an incoming req see
system.mem_ctrls0.rdQLenPdf::30                     0                       # What read queue length does an incoming req see
system.mem_ctrls0.rdQLenPdf::31                     0                       # What read queue length does an incoming req see
system.mem_ctrls0.wrQLenPdf::0                      2                       # What write queue length does an incoming req see
system.mem_ctrls0.wrQLenPdf::1                      2                       # What write queue length does an incoming req see
system.mem_ctrls0.wrQLenPdf::2                      2                       # What write queue length does an incoming req see
system.mem_ctrls0.wrQLenPdf::3                      2                       # What write queue length does an incoming req see
system.mem_ctrls0.wrQLenPdf::4                      2                       # What write queue length does an incoming req see
system.mem_ctrls0.wrQLenPdf::5                      2                       # What write queue length does an incoming req see
system.mem_ctrls0.wrQLenPdf::6                      2                       # What write queue length does an incoming req see
system.mem_ctrls0.wrQLenPdf::7                      2                       # What write queue length does an incoming req see
system.mem_ctrls0.wrQLenPdf::8                      2                       # What write queue length does an incoming req see
system.mem_ctrls0.wrQLenPdf::9                      2                       # What write queue length does an incoming req see
system.mem_ctrls0.wrQLenPdf::10                     2                       # What write queue length does an incoming req see
system.mem_ctrls0.wrQLenPdf::11                     2                       # What write queue length does an incoming req see
system.mem_ctrls0.wrQLenPdf::12                     2                       # What write queue length does an incoming req see
system.mem_ctrls0.wrQLenPdf::13                     2                       # What write queue length does an incoming req see
system.mem_ctrls0.wrQLenPdf::14                     2                       # What write queue length does an incoming req see
system.mem_ctrls0.wrQLenPdf::15                 35094                       # What write queue length does an incoming req see
system.mem_ctrls0.wrQLenPdf::16                 35936                       # What write queue length does an incoming req see
system.mem_ctrls0.wrQLenPdf::17                 49072                       # What write queue length does an incoming req see
system.mem_ctrls0.wrQLenPdf::18                 50085                       # What write queue length does an incoming req see
system.mem_ctrls0.wrQLenPdf::19                 50206                       # What write queue length does an incoming req see
system.mem_ctrls0.wrQLenPdf::20                 50196                       # What write queue length does an incoming req see
system.mem_ctrls0.wrQLenPdf::21                 50184                       # What write queue length does an incoming req see
system.mem_ctrls0.wrQLenPdf::22                 50203                       # What write queue length does an incoming req see
system.mem_ctrls0.wrQLenPdf::23                 50187                       # What write queue length does an incoming req see
system.mem_ctrls0.wrQLenPdf::24                 50165                       # What write queue length does an incoming req see
system.mem_ctrls0.wrQLenPdf::25                 50169                       # What write queue length does an incoming req see
system.mem_ctrls0.wrQLenPdf::26                 50186                       # What write queue length does an incoming req see
system.mem_ctrls0.wrQLenPdf::27                 50294                       # What write queue length does an incoming req see
system.mem_ctrls0.wrQLenPdf::28                 50437                       # What write queue length does an incoming req see
system.mem_ctrls0.wrQLenPdf::29                 50887                       # What write queue length does an incoming req see
system.mem_ctrls0.wrQLenPdf::30                 50540                       # What write queue length does an incoming req see
system.mem_ctrls0.wrQLenPdf::31                 50187                       # What write queue length does an incoming req see
system.mem_ctrls0.wrQLenPdf::32                 50132                       # What write queue length does an incoming req see
system.mem_ctrls0.wrQLenPdf::33                    17                       # What write queue length does an incoming req see
system.mem_ctrls0.wrQLenPdf::34                     1                       # What write queue length does an incoming req see
system.mem_ctrls0.wrQLenPdf::35                     1                       # What write queue length does an incoming req see
system.mem_ctrls0.wrQLenPdf::36                     0                       # What write queue length does an incoming req see
system.mem_ctrls0.wrQLenPdf::37                     0                       # What write queue length does an incoming req see
system.mem_ctrls0.wrQLenPdf::38                     0                       # What write queue length does an incoming req see
system.mem_ctrls0.wrQLenPdf::39                     0                       # What write queue length does an incoming req see
system.mem_ctrls0.wrQLenPdf::40                     0                       # What write queue length does an incoming req see
system.mem_ctrls0.wrQLenPdf::41                     0                       # What write queue length does an incoming req see
system.mem_ctrls0.wrQLenPdf::42                     0                       # What write queue length does an incoming req see
system.mem_ctrls0.wrQLenPdf::43                     0                       # What write queue length does an incoming req see
system.mem_ctrls0.wrQLenPdf::44                     0                       # What write queue length does an incoming req see
system.mem_ctrls0.wrQLenPdf::45                     0                       # What write queue length does an incoming req see
system.mem_ctrls0.wrQLenPdf::46                     0                       # What write queue length does an incoming req see
system.mem_ctrls0.wrQLenPdf::47                     0                       # What write queue length does an incoming req see
system.mem_ctrls0.wrQLenPdf::48                     0                       # What write queue length does an incoming req see
system.mem_ctrls0.wrQLenPdf::49                     0                       # What write queue length does an incoming req see
system.mem_ctrls0.wrQLenPdf::50                     0                       # What write queue length does an incoming req see
system.mem_ctrls0.wrQLenPdf::51                     0                       # What write queue length does an incoming req see
system.mem_ctrls0.wrQLenPdf::52                     0                       # What write queue length does an incoming req see
system.mem_ctrls0.wrQLenPdf::53                     0                       # What write queue length does an incoming req see
system.mem_ctrls0.wrQLenPdf::54                     0                       # What write queue length does an incoming req see
system.mem_ctrls0.wrQLenPdf::55                     0                       # What write queue length does an incoming req see
system.mem_ctrls0.wrQLenPdf::56                     0                       # What write queue length does an incoming req see
system.mem_ctrls0.wrQLenPdf::57                     0                       # What write queue length does an incoming req see
system.mem_ctrls0.wrQLenPdf::58                     0                       # What write queue length does an incoming req see
system.mem_ctrls0.wrQLenPdf::59                     0                       # What write queue length does an incoming req see
system.mem_ctrls0.wrQLenPdf::60                     0                       # What write queue length does an incoming req see
system.mem_ctrls0.wrQLenPdf::61                     0                       # What write queue length does an incoming req see
system.mem_ctrls0.wrQLenPdf::62                     0                       # What write queue length does an incoming req see
system.mem_ctrls0.wrQLenPdf::63                     0                       # What write queue length does an incoming req see
system.mem_ctrls0.bytesPerActivate::samples      1963993                       # Bytes accessed per row activation
system.mem_ctrls0.bytesPerActivate::mean    99.985106                       # Bytes accessed per row activation
system.mem_ctrls0.bytesPerActivate::gmean    81.540453                       # Bytes accessed per row activation
system.mem_ctrls0.bytesPerActivate::stdev    93.870937                       # Bytes accessed per row activation
system.mem_ctrls0.bytesPerActivate::0-127      1559507     79.40%     79.40% # Bytes accessed per row activation
system.mem_ctrls0.bytesPerActivate::128-255       244768     12.46%     91.87% # Bytes accessed per row activation
system.mem_ctrls0.bytesPerActivate::256-383        74697      3.80%     95.67% # Bytes accessed per row activation
system.mem_ctrls0.bytesPerActivate::384-511        36120      1.84%     97.51% # Bytes accessed per row activation
system.mem_ctrls0.bytesPerActivate::512-639        48160      2.45%     99.96% # Bytes accessed per row activation
system.mem_ctrls0.bytesPerActivate::640-767          528      0.03%     99.99% # Bytes accessed per row activation
system.mem_ctrls0.bytesPerActivate::768-895          100      0.01%     99.99% # Bytes accessed per row activation
system.mem_ctrls0.bytesPerActivate::896-1023           48      0.00%    100.00% # Bytes accessed per row activation
system.mem_ctrls0.bytesPerActivate::1024-1151           65      0.00%    100.00% # Bytes accessed per row activation
system.mem_ctrls0.bytesPerActivate::total      1963993                       # Bytes accessed per row activation
system.mem_ctrls0.rdPerTurnAround::samples        50084                       # Reads before turning the bus around for writes
system.mem_ctrls0.rdPerTurnAround::mean     43.808342                       # Reads before turning the bus around for writes
system.mem_ctrls0.rdPerTurnAround::gmean    41.664586                       # Reads before turning the bus around for writes
system.mem_ctrls0.rdPerTurnAround::stdev   141.008333                       # Reads before turning the bus around for writes
system.mem_ctrls0.rdPerTurnAround::0-1023        50083    100.00%    100.00% # Reads before turning the bus around for writes
system.mem_ctrls0.rdPerTurnAround::30720-31743            1      0.00%    100.00% # Reads before turning the bus around for writes
system.mem_ctrls0.rdPerTurnAround::total        50084                       # Reads before turning the bus around for writes
system.mem_ctrls0.wrPerTurnAround::samples        50084                       # Writes before turning the bus around for reads
system.mem_ctrls0.wrPerTurnAround::mean     17.454556                       # Writes before turning the bus around for reads
system.mem_ctrls0.wrPerTurnAround::gmean    17.428150                       # Writes before turning the bus around for reads
system.mem_ctrls0.wrPerTurnAround::stdev     0.947007                       # Writes before turning the bus around for reads
system.mem_ctrls0.wrPerTurnAround::16           14237     28.43%     28.43% # Writes before turning the bus around for reads
system.mem_ctrls0.wrPerTurnAround::17             698      1.39%     29.82% # Writes before turning the bus around for reads
system.mem_ctrls0.wrPerTurnAround::18           33428     66.74%     96.56% # Writes before turning the bus around for reads
system.mem_ctrls0.wrPerTurnAround::19            1608      3.21%     99.77% # Writes before turning the bus around for reads
system.mem_ctrls0.wrPerTurnAround::20              97      0.19%     99.97% # Writes before turning the bus around for reads
system.mem_ctrls0.wrPerTurnAround::21              13      0.03%     99.99% # Writes before turning the bus around for reads
system.mem_ctrls0.wrPerTurnAround::22               2      0.00%    100.00% # Writes before turning the bus around for reads
system.mem_ctrls0.wrPerTurnAround::23               1      0.00%    100.00% # Writes before turning the bus around for reads
system.mem_ctrls0.wrPerTurnAround::total        50084                       # Writes before turning the bus around for reads
system.mem_ctrls0.totQLat                 58230449448                       # Total ticks spent queuing
system.mem_ctrls0.totMemAccLat            99369768198                       # Total ticks spent from burst creation until serviced by the DRAM
system.mem_ctrls0.totBusLat               10970485000                       # Total ticks spent in databus transfers
system.mem_ctrls0.avgQLat                    26539.60                       # Average queueing delay per DRAM burst
system.mem_ctrls0.avgBusLat                   5000.00                       # Average bus latency per DRAM burst
system.mem_ctrls0.avgMemAccLat               45289.60                       # Average memory access latency per DRAM burst
system.mem_ctrls0.avgRdBW                      109.45                       # Average DRAM read bandwidth in MiByte/s
system.mem_ctrls0.avgWrBW                       43.61                       # Average achieved write bandwidth in MiByte/s
system.mem_ctrls0.avgRdBWSys                   109.45                       # Average system read bandwidth in MiByte/s
system.mem_ctrls0.avgWrBWSys                    43.61                       # Average system write bandwidth in MiByte/s
system.mem_ctrls0.peakBW                     12800.00                       # Theoretical peak bandwidth in MiByte/s
system.mem_ctrls0.busUtil                        1.20                       # Data bus utilization in percentage
system.mem_ctrls0.busUtilRead                    0.86                       # Data bus utilization in percentage for reads
system.mem_ctrls0.busUtilWrite                   0.34                       # Data bus utilization in percentage for writes
system.mem_ctrls0.avgRdQLen                      1.02                       # Average read queue length when enqueuing
system.mem_ctrls0.avgWrQLen                     24.34                       # Average write queue length when enqueuing
system.mem_ctrls0.readRowHits                  912454                       # Number of row buffer hits during reads
system.mem_ctrls0.writeRowHits                 191836                       # Number of row buffer hits during writes
system.mem_ctrls0.readRowHitRate                41.59                       # Row buffer hit rate for reads
system.mem_ctrls0.writeRowHitRate               21.94                       # Row buffer hit rate for writes
system.mem_ctrls0.avgGap                    418140.11                       # Average gap between requests
system.mem_ctrls0.pageHitRate                   35.99                       # Row buffer hit rate, read and write combined
system.mem_ctrls0_0.actEnergy              7008781080                       # Energy for activate commands per rank (pJ)
system.mem_ctrls0_0.preEnergy              3725244105                       # Energy for precharge commands per rank (pJ)
system.mem_ctrls0_0.readEnergy             7837770780                       # Energy for read commands per rank (pJ)
system.mem_ctrls0_0.writeEnergy            2281954320                       # Energy for write commands per rank (pJ)
system.mem_ctrls0_0.refreshEnergy        101663299920.000015                       # Energy for refresh commands per rank (pJ)
system.mem_ctrls0_0.actBackEnergy         61183638690                       # Energy for active background per rank (pJ)
system.mem_ctrls0_0.preBackEnergy          3372843840                       # Energy for precharge background per rank (pJ)
system.mem_ctrls0_0.actPowerDownEnergy   368539449660                       # Energy for active power-down per rank (pJ)
system.mem_ctrls0_0.prePowerDownEnergy    92796311040                       # Energy for precharge power-down per rank (pJ)
system.mem_ctrls0_0.selfRefreshEnergy     28889122155                       # Energy for self refresh per rank (pJ)
system.mem_ctrls0_0.totalEnergy          677319120960                       # Total energy per rank (pJ)
system.mem_ctrls0_0.averagePower           527.920479                       # Core power per rank (mW)
system.mem_ctrls0_0.totalIdleTime        1139993516385                       # Total Idle time Per DRAM Rank
system.mem_ctrls0_0.memoryStateTime::IDLE   4341725031                       # Time in different power states
system.mem_ctrls0_0.memoryStateTime::REF  43085588000                       # Time in different power states
system.mem_ctrls0_0.memoryStateTime::SREF  90132904400                       # Time in different power states
system.mem_ctrls0_0.memoryStateTime::PRE_PDN 241660031064                       # Time in different power states
system.mem_ctrls0_0.memoryStateTime::ACT  95573749726                       # Time in different power states
system.mem_ctrls0_0.memoryStateTime::ACT_PDN 808200580921                       # Time in different power states
system.mem_ctrls0_1.actEnergy              7014186060                       # Energy for activate commands per rank (pJ)
system.mem_ctrls0_1.preEnergy              3728109330                       # Energy for precharge commands per rank (pJ)
system.mem_ctrls0_1.readEnergy             7828081800                       # Energy for read commands per rank (pJ)
system.mem_ctrls0_1.writeEnergy            2281338360                       # Energy for write commands per rank (pJ)
system.mem_ctrls0_1.refreshEnergy        101616587280.000015                       # Energy for refresh commands per rank (pJ)
system.mem_ctrls0_1.actBackEnergy         61179965040                       # Energy for active background per rank (pJ)
system.mem_ctrls0_1.preBackEnergy          3376797120                       # Energy for precharge background per rank (pJ)
system.mem_ctrls0_1.actPowerDownEnergy   367808506170                       # Energy for active power-down per rank (pJ)
system.mem_ctrls0_1.prePowerDownEnergy    92955087840                       # Energy for precharge power-down per rank (pJ)
system.mem_ctrls0_1.selfRefreshEnergy     29218900860                       # Energy for self refresh per rank (pJ)
system.mem_ctrls0_1.totalEnergy          677027056890                       # Total energy per rank (pJ)
system.mem_ctrls0_1.averagePower           527.692839                       # Core power per rank (mW)
system.mem_ctrls0_1.totalIdleTime        1139994653857                       # Total Idle time Per DRAM Rank
system.mem_ctrls0_1.memoryStateTime::IDLE   4343802573                       # Time in different power states
system.mem_ctrls0_1.memoryStateTime::REF  43066572000                       # Time in different power states
system.mem_ctrls0_1.memoryStateTime::SREF  91322631697                       # Time in different power states
system.mem_ctrls0_1.memoryStateTime::PRE_PDN 242069418255                       # Time in different power states
system.mem_ctrls0_1.memoryStateTime::ACT  95589550712                       # Time in different power states
system.mem_ctrls0_1.memoryStateTime::ACT_PDN 806602603905                       # Time in different power states
system.mem_ctrls1.pwrStateResidencyTicks::UNDEFINED 118517691011328                       # Cumulative time (in ticks) in various power states
system.mem_ctrls1.bytes_read::cpu.inst             64                       # Number of bytes read from this memory
system.mem_ctrls1.bytes_read::switch_cpus.inst        22464                       # Number of bytes read from this memory
system.mem_ctrls1.bytes_read::switch_cpus.data    118736448                       # Number of bytes read from this memory
system.mem_ctrls1.bytes_read::switch_cpus_1.inst          320                       # Number of bytes read from this memory
system.mem_ctrls1.bytes_read::switch_cpus_1.data     21625920                       # Number of bytes read from this memory
system.mem_ctrls1.bytes_read::total         140385216                       # Number of bytes read from this memory
system.mem_ctrls1.bytes_inst_read::cpu.inst           64                       # Number of instructions bytes read from this memory
system.mem_ctrls1.bytes_inst_read::switch_cpus.inst        22464                       # Number of instructions bytes read from this memory
system.mem_ctrls1.bytes_inst_read::switch_cpus_1.inst          320                       # Number of instructions bytes read from this memory
system.mem_ctrls1.bytes_inst_read::total        22848                       # Number of instructions bytes read from this memory
system.mem_ctrls1.bytes_written::writebacks     55941184                       # Number of bytes written to this memory
system.mem_ctrls1.bytes_written::total       55941184                       # Number of bytes written to this memory
system.mem_ctrls1.num_reads::cpu.inst               1                       # Number of read requests responded to by this memory
system.mem_ctrls1.num_reads::switch_cpus.inst          351                       # Number of read requests responded to by this memory
system.mem_ctrls1.num_reads::switch_cpus.data      1855257                       # Number of read requests responded to by this memory
system.mem_ctrls1.num_reads::switch_cpus_1.inst            5                       # Number of read requests responded to by this memory
system.mem_ctrls1.num_reads::switch_cpus_1.data       337905                       # Number of read requests responded to by this memory
system.mem_ctrls1.num_reads::total            2193519                       # Number of read requests responded to by this memory
system.mem_ctrls1.num_writes::writebacks       874081                       # Number of write requests responded to by this memory
system.mem_ctrls1.num_writes::total            874081                       # Number of write requests responded to by this memory
system.mem_ctrls1.bw_read::cpu.inst                50                       # Total read bandwidth from this memory (bytes/s)
system.mem_ctrls1.bw_read::switch_cpus.inst        17509                       # Total read bandwidth from this memory (bytes/s)
system.mem_ctrls1.bw_read::switch_cpus.data     92546336                       # Total read bandwidth from this memory (bytes/s)
system.mem_ctrls1.bw_read::switch_cpus_1.inst          249                       # Total read bandwidth from this memory (bytes/s)
system.mem_ctrls1.bw_read::switch_cpus_1.data     16855816                       # Total read bandwidth from this memory (bytes/s)
system.mem_ctrls1.bw_read::total            109419960                       # Total read bandwidth from this memory (bytes/s)
system.mem_ctrls1.bw_inst_read::cpu.inst           50                       # Instruction read bandwidth from this memory (bytes/s)
system.mem_ctrls1.bw_inst_read::switch_cpus.inst        17509                       # Instruction read bandwidth from this memory (bytes/s)
system.mem_ctrls1.bw_inst_read::switch_cpus_1.inst          249                       # Instruction read bandwidth from this memory (bytes/s)
system.mem_ctrls1.bw_inst_read::total           17808                       # Instruction read bandwidth from this memory (bytes/s)
system.mem_ctrls1.bw_write::writebacks       43602042                       # Write bandwidth from this memory (bytes/s)
system.mem_ctrls1.bw_write::total            43602042                       # Write bandwidth from this memory (bytes/s)
system.mem_ctrls1.bw_total::writebacks       43602042                       # Total bandwidth to/from this memory (bytes/s)
system.mem_ctrls1.bw_total::cpu.inst               50                       # Total bandwidth to/from this memory (bytes/s)
system.mem_ctrls1.bw_total::switch_cpus.inst        17509                       # Total bandwidth to/from this memory (bytes/s)
system.mem_ctrls1.bw_total::switch_cpus.data     92546336                       # Total bandwidth to/from this memory (bytes/s)
system.mem_ctrls1.bw_total::switch_cpus_1.inst          249                       # Total bandwidth to/from this memory (bytes/s)
system.mem_ctrls1.bw_total::switch_cpus_1.data     16855816                       # Total bandwidth to/from this memory (bytes/s)
system.mem_ctrls1.bw_total::total           153022003                       # Total bandwidth to/from this memory (bytes/s)
system.mem_ctrls1.readReqs                    2193519                       # Number of read requests accepted
system.mem_ctrls1.writeReqs                    874081                       # Number of write requests accepted
system.mem_ctrls1.readBursts                  2193519                       # Number of DRAM read bursts, including those serviced by the write queue
system.mem_ctrls1.writeBursts                  874081                       # Number of DRAM write bursts, including those merged in the write queue
system.mem_ctrls1.bytesReadDRAM             140382784                       # Total number of bytes read from DRAM
system.mem_ctrls1.bytesReadWrQ                   2432                       # Total number of bytes read from write queue
system.mem_ctrls1.bytesWritten               55939200                       # Total number of bytes written to DRAM
system.mem_ctrls1.bytesReadSys              140385216                       # Total read bytes from the system interface side
system.mem_ctrls1.bytesWrittenSys            55941184                       # Total written bytes from the system interface side
system.mem_ctrls1.servicedByWrQ                    38                       # Number of DRAM read bursts serviced by the write queue
system.mem_ctrls1.mergedWrBursts                    0                       # Number of DRAM write bursts merged with an existing one
system.mem_ctrls1.neitherReadNorWriteReqs            0                       # Number of requests that are neither read nor write
system.mem_ctrls1.perBankRdBursts::0           136897                       # Per bank write bursts
system.mem_ctrls1.perBankRdBursts::1           137435                       # Per bank write bursts
system.mem_ctrls1.perBankRdBursts::2           137589                       # Per bank write bursts
system.mem_ctrls1.perBankRdBursts::3           136893                       # Per bank write bursts
system.mem_ctrls1.perBankRdBursts::4           137633                       # Per bank write bursts
system.mem_ctrls1.perBankRdBursts::5           136955                       # Per bank write bursts
system.mem_ctrls1.perBankRdBursts::6           137623                       # Per bank write bursts
system.mem_ctrls1.perBankRdBursts::7           136534                       # Per bank write bursts
system.mem_ctrls1.perBankRdBursts::8           137133                       # Per bank write bursts
system.mem_ctrls1.perBankRdBursts::9           137389                       # Per bank write bursts
system.mem_ctrls1.perBankRdBursts::10          136859                       # Per bank write bursts
system.mem_ctrls1.perBankRdBursts::11          137272                       # Per bank write bursts
system.mem_ctrls1.perBankRdBursts::12          137175                       # Per bank write bursts
system.mem_ctrls1.perBankRdBursts::13          136396                       # Per bank write bursts
system.mem_ctrls1.perBankRdBursts::14          136770                       # Per bank write bursts
system.mem_ctrls1.perBankRdBursts::15          136928                       # Per bank write bursts
system.mem_ctrls1.perBankWrBursts::0            54515                       # Per bank write bursts
system.mem_ctrls1.perBankWrBursts::1            54383                       # Per bank write bursts
system.mem_ctrls1.perBankWrBursts::2            54608                       # Per bank write bursts
system.mem_ctrls1.perBankWrBursts::3            54667                       # Per bank write bursts
system.mem_ctrls1.perBankWrBursts::4            54613                       # Per bank write bursts
system.mem_ctrls1.perBankWrBursts::5            54549                       # Per bank write bursts
system.mem_ctrls1.perBankWrBursts::6            55209                       # Per bank write bursts
system.mem_ctrls1.perBankWrBursts::7            54465                       # Per bank write bursts
system.mem_ctrls1.perBankWrBursts::8            54728                       # Per bank write bursts
system.mem_ctrls1.perBankWrBursts::9            54951                       # Per bank write bursts
system.mem_ctrls1.perBankWrBursts::10           54672                       # Per bank write bursts
system.mem_ctrls1.perBankWrBursts::11           54579                       # Per bank write bursts
system.mem_ctrls1.perBankWrBursts::12           54687                       # Per bank write bursts
system.mem_ctrls1.perBankWrBursts::13           54515                       # Per bank write bursts
system.mem_ctrls1.perBankWrBursts::14           54499                       # Per bank write bursts
system.mem_ctrls1.perBankWrBursts::15           54410                       # Per bank write bursts
system.mem_ctrls1.numRdRetry                        0                       # Number of times read queue was full causing retry
system.mem_ctrls1.numWrRetry                        0                       # Number of times write queue was full causing retry
system.mem_ctrls1.totGap                 1282994425962                       # Total gap between requests
system.mem_ctrls1.readPktSize::0                    0                       # Read request sizes (log2)
system.mem_ctrls1.readPktSize::1                    0                       # Read request sizes (log2)
system.mem_ctrls1.readPktSize::2                    0                       # Read request sizes (log2)
system.mem_ctrls1.readPktSize::3                    0                       # Read request sizes (log2)
system.mem_ctrls1.readPktSize::4                    0                       # Read request sizes (log2)
system.mem_ctrls1.readPktSize::5                    0                       # Read request sizes (log2)
system.mem_ctrls1.readPktSize::6              2193519                       # Read request sizes (log2)
system.mem_ctrls1.writePktSize::0                   0                       # Write request sizes (log2)
system.mem_ctrls1.writePktSize::1                   0                       # Write request sizes (log2)
system.mem_ctrls1.writePktSize::2                   0                       # Write request sizes (log2)
system.mem_ctrls1.writePktSize::3                   0                       # Write request sizes (log2)
system.mem_ctrls1.writePktSize::4                   0                       # Write request sizes (log2)
system.mem_ctrls1.writePktSize::5                   0                       # Write request sizes (log2)
system.mem_ctrls1.writePktSize::6              874081                       # Write request sizes (log2)
system.mem_ctrls1.rdQLenPdf::0                2103322                       # What read queue length does an incoming req see
system.mem_ctrls1.rdQLenPdf::1                  74711                       # What read queue length does an incoming req see
system.mem_ctrls1.rdQLenPdf::2                  13737                       # What read queue length does an incoming req see
system.mem_ctrls1.rdQLenPdf::3                   1711                       # What read queue length does an incoming req see
system.mem_ctrls1.rdQLenPdf::4                      0                       # What read queue length does an incoming req see
system.mem_ctrls1.rdQLenPdf::5                      0                       # What read queue length does an incoming req see
system.mem_ctrls1.rdQLenPdf::6                      0                       # What read queue length does an incoming req see
system.mem_ctrls1.rdQLenPdf::7                      0                       # What read queue length does an incoming req see
system.mem_ctrls1.rdQLenPdf::8                      0                       # What read queue length does an incoming req see
system.mem_ctrls1.rdQLenPdf::9                      0                       # What read queue length does an incoming req see
system.mem_ctrls1.rdQLenPdf::10                     0                       # What read queue length does an incoming req see
system.mem_ctrls1.rdQLenPdf::11                     0                       # What read queue length does an incoming req see
system.mem_ctrls1.rdQLenPdf::12                     0                       # What read queue length does an incoming req see
system.mem_ctrls1.rdQLenPdf::13                     0                       # What read queue length does an incoming req see
system.mem_ctrls1.rdQLenPdf::14                     0                       # What read queue length does an incoming req see
system.mem_ctrls1.rdQLenPdf::15                     0                       # What read queue length does an incoming req see
system.mem_ctrls1.rdQLenPdf::16                     0                       # What read queue length does an incoming req see
system.mem_ctrls1.rdQLenPdf::17                     0                       # What read queue length does an incoming req see
system.mem_ctrls1.rdQLenPdf::18                     0                       # What read queue length does an incoming req see
system.mem_ctrls1.rdQLenPdf::19                     0                       # What read queue length does an incoming req see
system.mem_ctrls1.rdQLenPdf::20                     0                       # What read queue length does an incoming req see
system.mem_ctrls1.rdQLenPdf::21                     0                       # What read queue length does an incoming req see
system.mem_ctrls1.rdQLenPdf::22                     0                       # What read queue length does an incoming req see
system.mem_ctrls1.rdQLenPdf::23                     0                       # What read queue length does an incoming req see
system.mem_ctrls1.rdQLenPdf::24                     0                       # What read queue length does an incoming req see
system.mem_ctrls1.rdQLenPdf::25                     0                       # What read queue length does an incoming req see
system.mem_ctrls1.rdQLenPdf::26                     0                       # What read queue length does an incoming req see
system.mem_ctrls1.rdQLenPdf::27                     0                       # What read queue length does an incoming req see
system.mem_ctrls1.rdQLenPdf::28                     0                       # What read queue length does an incoming req see
system.mem_ctrls1.rdQLenPdf::29                     0                       # What read queue length does an incoming req see
system.mem_ctrls1.rdQLenPdf::30                     0                       # What read queue length does an incoming req see
system.mem_ctrls1.rdQLenPdf::31                     0                       # What read queue length does an incoming req see
system.mem_ctrls1.wrQLenPdf::0                      2                       # What write queue length does an incoming req see
system.mem_ctrls1.wrQLenPdf::1                      2                       # What write queue length does an incoming req see
system.mem_ctrls1.wrQLenPdf::2                      2                       # What write queue length does an incoming req see
system.mem_ctrls1.wrQLenPdf::3                      2                       # What write queue length does an incoming req see
system.mem_ctrls1.wrQLenPdf::4                      2                       # What write queue length does an incoming req see
system.mem_ctrls1.wrQLenPdf::5                      2                       # What write queue length does an incoming req see
system.mem_ctrls1.wrQLenPdf::6                      2                       # What write queue length does an incoming req see
system.mem_ctrls1.wrQLenPdf::7                      2                       # What write queue length does an incoming req see
system.mem_ctrls1.wrQLenPdf::8                      2                       # What write queue length does an incoming req see
system.mem_ctrls1.wrQLenPdf::9                      2                       # What write queue length does an incoming req see
system.mem_ctrls1.wrQLenPdf::10                     2                       # What write queue length does an incoming req see
system.mem_ctrls1.wrQLenPdf::11                     2                       # What write queue length does an incoming req see
system.mem_ctrls1.wrQLenPdf::12                     2                       # What write queue length does an incoming req see
system.mem_ctrls1.wrQLenPdf::13                     2                       # What write queue length does an incoming req see
system.mem_ctrls1.wrQLenPdf::14                     2                       # What write queue length does an incoming req see
system.mem_ctrls1.wrQLenPdf::15                 35142                       # What write queue length does an incoming req see
system.mem_ctrls1.wrQLenPdf::16                 35995                       # What write queue length does an incoming req see
system.mem_ctrls1.wrQLenPdf::17                 48962                       # What write queue length does an incoming req see
system.mem_ctrls1.wrQLenPdf::18                 50079                       # What write queue length does an incoming req see
system.mem_ctrls1.wrQLenPdf::19                 50175                       # What write queue length does an incoming req see
system.mem_ctrls1.wrQLenPdf::20                 50193                       # What write queue length does an incoming req see
system.mem_ctrls1.wrQLenPdf::21                 50179                       # What write queue length does an incoming req see
system.mem_ctrls1.wrQLenPdf::22                 50166                       # What write queue length does an incoming req see
system.mem_ctrls1.wrQLenPdf::23                 50169                       # What write queue length does an incoming req see
system.mem_ctrls1.wrQLenPdf::24                 50182                       # What write queue length does an incoming req see
system.mem_ctrls1.wrQLenPdf::25                 50158                       # What write queue length does an incoming req see
system.mem_ctrls1.wrQLenPdf::26                 50191                       # What write queue length does an incoming req see
system.mem_ctrls1.wrQLenPdf::27                 50301                       # What write queue length does an incoming req see
system.mem_ctrls1.wrQLenPdf::28                 50475                       # What write queue length does an incoming req see
system.mem_ctrls1.wrQLenPdf::29                 50865                       # What write queue length does an incoming req see
system.mem_ctrls1.wrQLenPdf::30                 50508                       # What write queue length does an incoming req see
system.mem_ctrls1.wrQLenPdf::31                 50174                       # What write queue length does an incoming req see
system.mem_ctrls1.wrQLenPdf::32                 50108                       # What write queue length does an incoming req see
system.mem_ctrls1.wrQLenPdf::33                    24                       # What write queue length does an incoming req see
system.mem_ctrls1.wrQLenPdf::34                     4                       # What write queue length does an incoming req see
system.mem_ctrls1.wrQLenPdf::35                     1                       # What write queue length does an incoming req see
system.mem_ctrls1.wrQLenPdf::36                     0                       # What write queue length does an incoming req see
system.mem_ctrls1.wrQLenPdf::37                     0                       # What write queue length does an incoming req see
system.mem_ctrls1.wrQLenPdf::38                     0                       # What write queue length does an incoming req see
system.mem_ctrls1.wrQLenPdf::39                     0                       # What write queue length does an incoming req see
system.mem_ctrls1.wrQLenPdf::40                     0                       # What write queue length does an incoming req see
system.mem_ctrls1.wrQLenPdf::41                     0                       # What write queue length does an incoming req see
system.mem_ctrls1.wrQLenPdf::42                     0                       # What write queue length does an incoming req see
system.mem_ctrls1.wrQLenPdf::43                     0                       # What write queue length does an incoming req see
system.mem_ctrls1.wrQLenPdf::44                     0                       # What write queue length does an incoming req see
system.mem_ctrls1.wrQLenPdf::45                     0                       # What write queue length does an incoming req see
system.mem_ctrls1.wrQLenPdf::46                     0                       # What write queue length does an incoming req see
system.mem_ctrls1.wrQLenPdf::47                     0                       # What write queue length does an incoming req see
system.mem_ctrls1.wrQLenPdf::48                     0                       # What write queue length does an incoming req see
system.mem_ctrls1.wrQLenPdf::49                     0                       # What write queue length does an incoming req see
system.mem_ctrls1.wrQLenPdf::50                     0                       # What write queue length does an incoming req see
system.mem_ctrls1.wrQLenPdf::51                     0                       # What write queue length does an incoming req see
system.mem_ctrls1.wrQLenPdf::52                     0                       # What write queue length does an incoming req see
system.mem_ctrls1.wrQLenPdf::53                     0                       # What write queue length does an incoming req see
system.mem_ctrls1.wrQLenPdf::54                     0                       # What write queue length does an incoming req see
system.mem_ctrls1.wrQLenPdf::55                     0                       # What write queue length does an incoming req see
system.mem_ctrls1.wrQLenPdf::56                     0                       # What write queue length does an incoming req see
system.mem_ctrls1.wrQLenPdf::57                     0                       # What write queue length does an incoming req see
system.mem_ctrls1.wrQLenPdf::58                     0                       # What write queue length does an incoming req see
system.mem_ctrls1.wrQLenPdf::59                     0                       # What write queue length does an incoming req see
system.mem_ctrls1.wrQLenPdf::60                     0                       # What write queue length does an incoming req see
system.mem_ctrls1.wrQLenPdf::61                     0                       # What write queue length does an incoming req see
system.mem_ctrls1.wrQLenPdf::62                     0                       # What write queue length does an incoming req see
system.mem_ctrls1.wrQLenPdf::63                     0                       # What write queue length does an incoming req see
system.mem_ctrls1.bytesPerActivate::samples      1963149                       # Bytes accessed per row activation
system.mem_ctrls1.bytesPerActivate::mean   100.003250                       # Bytes accessed per row activation
system.mem_ctrls1.bytesPerActivate::gmean    81.565350                       # Bytes accessed per row activation
system.mem_ctrls1.bytesPerActivate::stdev    93.830681                       # Bytes accessed per row activation
system.mem_ctrls1.bytesPerActivate::0-127      1557799     79.35%     79.35% # Bytes accessed per row activation
system.mem_ctrls1.bytesPerActivate::128-255       245772     12.52%     91.87% # Bytes accessed per row activation
system.mem_ctrls1.bytesPerActivate::256-383        74623      3.80%     95.67% # Bytes accessed per row activation
system.mem_ctrls1.bytesPerActivate::384-511        36137      1.84%     97.51% # Bytes accessed per row activation
system.mem_ctrls1.bytesPerActivate::512-639        48069      2.45%     99.96% # Bytes accessed per row activation
system.mem_ctrls1.bytesPerActivate::640-767          504      0.03%     99.99% # Bytes accessed per row activation
system.mem_ctrls1.bytesPerActivate::768-895          147      0.01%    100.00% # Bytes accessed per row activation
system.mem_ctrls1.bytesPerActivate::896-1023           41      0.00%    100.00% # Bytes accessed per row activation
system.mem_ctrls1.bytesPerActivate::1024-1151           57      0.00%    100.00% # Bytes accessed per row activation
system.mem_ctrls1.bytesPerActivate::total      1963149                       # Bytes accessed per row activation
system.mem_ctrls1.rdPerTurnAround::samples        50073                       # Reads before turning the bus around for writes
system.mem_ctrls1.rdPerTurnAround::mean     43.805184                       # Reads before turning the bus around for writes
system.mem_ctrls1.rdPerTurnAround::gmean    41.635194                       # Reads before turning the bus around for writes
system.mem_ctrls1.rdPerTurnAround::stdev   140.815903                       # Reads before turning the bus around for writes
system.mem_ctrls1.rdPerTurnAround::0-1023        50072    100.00%    100.00% # Reads before turning the bus around for writes
system.mem_ctrls1.rdPerTurnAround::30720-31743            1      0.00%    100.00% # Reads before turning the bus around for writes
system.mem_ctrls1.rdPerTurnAround::total        50073                       # Reads before turning the bus around for writes
system.mem_ctrls1.wrPerTurnAround::samples        50073                       # Writes before turning the bus around for reads
system.mem_ctrls1.wrPerTurnAround::mean     17.455515                       # Writes before turning the bus around for reads
system.mem_ctrls1.wrPerTurnAround::gmean    17.429264                       # Writes before turning the bus around for reads
system.mem_ctrls1.wrPerTurnAround::stdev     0.944087                       # Writes before turning the bus around for reads
system.mem_ctrls1.wrPerTurnAround::16           14167     28.29%     28.29% # Writes before turning the bus around for reads
system.mem_ctrls1.wrPerTurnAround::17             715      1.43%     29.72% # Writes before turning the bus around for reads
system.mem_ctrls1.wrPerTurnAround::18           33538     66.98%     96.70% # Writes before turning the bus around for reads
system.mem_ctrls1.wrPerTurnAround::19            1539      3.07%     99.77% # Writes before turning the bus around for reads
system.mem_ctrls1.wrPerTurnAround::20              99      0.20%     99.97% # Writes before turning the bus around for reads
system.mem_ctrls1.wrPerTurnAround::21              12      0.02%     99.99% # Writes before turning the bus around for reads
system.mem_ctrls1.wrPerTurnAround::22               3      0.01%    100.00% # Writes before turning the bus around for reads
system.mem_ctrls1.wrPerTurnAround::total        50073                       # Writes before turning the bus around for reads
system.mem_ctrls1.totQLat                 58255919837                       # Total ticks spent queuing
system.mem_ctrls1.totMemAccLat            99383688587                       # Total ticks spent from burst creation until serviced by the DRAM
system.mem_ctrls1.totBusLat               10967405000                       # Total ticks spent in databus transfers
system.mem_ctrls1.avgQLat                    26558.66                       # Average queueing delay per DRAM burst
system.mem_ctrls1.avgBusLat                   5000.00                       # Average bus latency per DRAM burst
system.mem_ctrls1.avgMemAccLat               45308.66                       # Average memory access latency per DRAM burst
system.mem_ctrls1.avgRdBW                      109.42                       # Average DRAM read bandwidth in MiByte/s
system.mem_ctrls1.avgWrBW                       43.60                       # Average achieved write bandwidth in MiByte/s
system.mem_ctrls1.avgRdBWSys                   109.42                       # Average system read bandwidth in MiByte/s
system.mem_ctrls1.avgWrBWSys                    43.60                       # Average system write bandwidth in MiByte/s
system.mem_ctrls1.peakBW                     12800.00                       # Theoretical peak bandwidth in MiByte/s
system.mem_ctrls1.busUtil                        1.20                       # Data bus utilization in percentage
system.mem_ctrls1.busUtilRead                    0.85                       # Data bus utilization in percentage for reads
system.mem_ctrls1.busUtilWrite                   0.34                       # Data bus utilization in percentage for writes
system.mem_ctrls1.avgRdQLen                      1.02                       # Average read queue length when enqueuing
system.mem_ctrls1.avgWrQLen                     24.32                       # Average write queue length when enqueuing
system.mem_ctrls1.readRowHits                  912308                       # Number of row buffer hits during reads
system.mem_ctrls1.writeRowHits                 192063                       # Number of row buffer hits during writes
system.mem_ctrls1.readRowHitRate                41.59                       # Row buffer hit rate for reads
system.mem_ctrls1.writeRowHitRate               21.97                       # Row buffer hit rate for writes
system.mem_ctrls1.avgGap                    418240.46                       # Average gap between requests
system.mem_ctrls1.pageHitRate                   36.00                       # Row buffer hit rate, read and write combined
system.mem_ctrls1_0.actEnergy              7007560140                       # Energy for activate commands per rank (pJ)
system.mem_ctrls1_0.preEnergy              3724591365                       # Energy for precharge commands per rank (pJ)
system.mem_ctrls1_0.readEnergy             7836571260                       # Energy for read commands per rank (pJ)
system.mem_ctrls1_0.writeEnergy            2281186980                       # Energy for write commands per rank (pJ)
system.mem_ctrls1_0.refreshEnergy        101639943600.000015                       # Energy for refresh commands per rank (pJ)
system.mem_ctrls1_0.actBackEnergy         61567490370                       # Energy for active background per rank (pJ)
system.mem_ctrls1_0.preBackEnergy          3381642720                       # Energy for precharge background per rank (pJ)
system.mem_ctrls1_0.actPowerDownEnergy   367971570630                       # Energy for active power-down per rank (pJ)
system.mem_ctrls1_0.prePowerDownEnergy    92903729760                       # Energy for precharge power-down per rank (pJ)
system.mem_ctrls1_0.selfRefreshEnergy     28898346615                       # Energy for self refresh per rank (pJ)
system.mem_ctrls1_0.totalEnergy          677234609760                       # Total energy per rank (pJ)
system.mem_ctrls1_0.averagePower           527.854610                       # Core power per rank (mW)
system.mem_ctrls1_0.totalIdleTime        1139109976192                       # Total Idle time Per DRAM Rank
system.mem_ctrls1_0.memoryStateTime::IDLE   4360871215                       # Time in different power states
system.mem_ctrls1_0.memoryStateTime::REF  43075528000                       # Time in different power states
system.mem_ctrls1_0.memoryStateTime::SREF  90230927131                       # Time in different power states
system.mem_ctrls1_0.memoryStateTime::PRE_PDN 241931466937                       # Time in different power states
system.mem_ctrls1_0.memoryStateTime::ACT  96448128287                       # Time in different power states
system.mem_ctrls1_0.memoryStateTime::ACT_PDN 806947657572                       # Time in different power states
system.mem_ctrls1_1.actEnergy              7009402260                       # Energy for activate commands per rank (pJ)
system.mem_ctrls1_1.preEnergy              3725559090                       # Energy for precharge commands per rank (pJ)
system.mem_ctrls1_1.readEnergy             7824883080                       # Energy for read commands per rank (pJ)
system.mem_ctrls1_1.writeEnergy            2281354020                       # Energy for write commands per rank (pJ)
system.mem_ctrls1_1.refreshEnergy        101715544320.000015                       # Energy for refresh commands per rank (pJ)
system.mem_ctrls1_1.actBackEnergy         61119226980                       # Energy for active background per rank (pJ)
system.mem_ctrls1_1.preBackEnergy          3402664800                       # Energy for precharge background per rank (pJ)
system.mem_ctrls1_1.actPowerDownEnergy   367494025200                       # Energy for active power-down per rank (pJ)
system.mem_ctrls1_1.prePowerDownEnergy    93149356320                       # Energy for precharge power-down per rank (pJ)
system.mem_ctrls1_1.selfRefreshEnergy     29393755650                       # Energy for self refresh per rank (pJ)
system.mem_ctrls1_1.totalEnergy          677137027260                       # Total energy per rank (pJ)
system.mem_ctrls1_1.averagePower           527.778553                       # Core power per rank (mW)
system.mem_ctrls1_1.totalIdleTime        1140068857840                       # Total Idle time Per DRAM Rank
system.mem_ctrls1_1.memoryStateTime::IDLE   4409050390                       # Time in different power states
system.mem_ctrls1_1.memoryStateTime::REF  43109458000                       # Time in different power states
system.mem_ctrls1_1.memoryStateTime::SREF  91568281206                       # Time in different power states
system.mem_ctrls1_1.memoryStateTime::PRE_PDN 242577488790                       # Time in different power states
system.mem_ctrls1_1.memoryStateTime::ACT  95407129964                       # Time in different power states
system.mem_ctrls1_1.memoryStateTime::ACT_PDN 805923170792                       # Time in different power states
system.pwrStateResidencyTicks::UNDEFINED 118517691011328                       # Cumulative time (in ticks) in various power states
system.cpu.branchPred.lookups                       0                       # Number of BP lookups
system.cpu.branchPred.condPredicted                 0                       # Number of conditional branches predicted
system.cpu.branchPred.condIncorrect                 0                       # Number of conditional branches incorrect
system.cpu.branchPred.BTBLookups                    0                       # Number of BTB lookups
system.cpu.branchPred.BTBHits                       0                       # Number of BTB hits
system.cpu.branchPred.BTBCorrect                    0                       # Number of correct BTB predictions (this stat may not work properly.
system.cpu.branchPred.BTBHitPct                   nan                       # BTB Hit Percentage
system.cpu.branchPred.usedRAS                       0                       # Number of times the RAS was used to get a target.
system.cpu.branchPred.RASInCorrect                  0                       # Number of incorrect RAS predictions.
system.cpu.branchPred.indirectLookups               0                       # Number of indirect predictor lookups.
system.cpu.branchPred.indirectHits                  0                       # Number of indirect target hits.
system.cpu.branchPred.indirectMisses                0                       # Number of indirect misses.
system.cpu.branchPredindirectMispredicted            0                       # Number of mispredicted indirect branches.
system.cpu_voltage_domain.voltage                   1                       # Voltage in Volts
system.cpu_clk_domain.clock                       333                       # Clock period in ticks
system.cpu.dtb.fetch_hits                           0                       # ITB hits
system.cpu.dtb.fetch_misses                         0                       # ITB misses
system.cpu.dtb.fetch_acv                            0                       # ITB acv
system.cpu.dtb.fetch_accesses                       0                       # ITB accesses
system.cpu.dtb.read_hits                            0                       # DTB read hits
system.cpu.dtb.read_misses                          0                       # DTB read misses
system.cpu.dtb.read_acv                             0                       # DTB read access violations
system.cpu.dtb.read_accesses                        0                       # DTB read accesses
system.cpu.dtb.write_hits                           0                       # DTB write hits
system.cpu.dtb.write_misses                         0                       # DTB write misses
system.cpu.dtb.write_acv                            0                       # DTB write access violations
system.cpu.dtb.write_accesses                       0                       # DTB write accesses
system.cpu.dtb.data_hits                            0                       # DTB hits
system.cpu.dtb.data_misses                          0                       # DTB misses
system.cpu.dtb.data_acv                             0                       # DTB access violations
system.cpu.dtb.data_accesses                        0                       # DTB accesses
system.cpu.itb.fetch_hits                           3                       # ITB hits
system.cpu.itb.fetch_misses                         0                       # ITB misses
system.cpu.itb.fetch_acv                            0                       # ITB acv
system.cpu.itb.fetch_accesses                       3                       # ITB accesses
system.cpu.itb.read_hits                            0                       # DTB read hits
system.cpu.itb.read_misses                          0                       # DTB read misses
system.cpu.itb.read_acv                             0                       # DTB read access violations
system.cpu.itb.read_accesses                        0                       # DTB read accesses
system.cpu.itb.write_hits                           0                       # DTB write hits
system.cpu.itb.write_misses                         0                       # DTB write misses
system.cpu.itb.write_acv                            0                       # DTB write access violations
system.cpu.itb.write_accesses                       0                       # DTB write accesses
system.cpu.itb.data_hits                            0                       # DTB hits
system.cpu.itb.data_misses                          0                       # DTB misses
system.cpu.itb.data_acv                             0                       # DTB access violations
system.cpu.itb.data_accesses                        0                       # DTB accesses
system.cpu.workload.num_syscalls                    0                       # Number of system calls
system.cpu.pwrStateResidencyTicks::ON    1282994579142                       # Cumulative time (in ticks) in various power states
system.cpu.numCycles                              294                       # number of cpu cycles simulated
system.cpu.numWorkItemsStarted                      0                       # number of work items this cpu started
system.cpu.numWorkItemsCompleted                    0                       # number of work items this cpu completed
system.cpu.fetch.icacheStallCycles                 23                       # Number of cycles fetch is stalled on an Icache miss
system.cpu.fetch.Insts                              7                       # Number of instructions fetch has processed
system.cpu.fetch.Cycles                             1                       # Number of cycles fetch has run and was not squashing or blocked
system.cpu.fetch.SquashCycles                       3                       # Number of cycles fetch has spent squashing
system.cpu.fetch.PendingDrainCycles                 3                       # Number of cycles fetch has spent waiting on pipes to drain
system.cpu.fetch.CacheLines                         3                       # Number of cache lines fetched
system.cpu.fetch.IcacheSquashes                     2                       # Number of outstanding Icache misses that were squashed
system.cpu.fetch.rateDist::samples                 28                       # Number of instructions fetched each cycle (Total)
system.cpu.fetch.rateDist::mean              0.250000                       # Number of instructions fetched each cycle (Total)
system.cpu.fetch.rateDist::stdev             1.322876                       # Number of instructions fetched each cycle (Total)
system.cpu.fetch.rateDist::underflows               0      0.00%      0.00% # Number of instructions fetched each cycle (Total)
system.cpu.fetch.rateDist::0                       27     96.43%     96.43% # Number of instructions fetched each cycle (Total)
system.cpu.fetch.rateDist::1                        0      0.00%     96.43% # Number of instructions fetched each cycle (Total)
system.cpu.fetch.rateDist::2                        0      0.00%     96.43% # Number of instructions fetched each cycle (Total)
system.cpu.fetch.rateDist::3                        0      0.00%     96.43% # Number of instructions fetched each cycle (Total)
system.cpu.fetch.rateDist::4                        0      0.00%     96.43% # Number of instructions fetched each cycle (Total)
system.cpu.fetch.rateDist::5                        0      0.00%     96.43% # Number of instructions fetched each cycle (Total)
system.cpu.fetch.rateDist::6                        0      0.00%     96.43% # Number of instructions fetched each cycle (Total)
system.cpu.fetch.rateDist::7                        1      3.57%    100.00% # Number of instructions fetched each cycle (Total)
system.cpu.fetch.rateDist::8                        0      0.00%    100.00% # Number of instructions fetched each cycle (Total)
system.cpu.fetch.rateDist::overflows                0      0.00%    100.00% # Number of instructions fetched each cycle (Total)
system.cpu.fetch.rateDist::min_value                0                       # Number of instructions fetched each cycle (Total)
system.cpu.fetch.rateDist::max_value                7                       # Number of instructions fetched each cycle (Total)
system.cpu.fetch.rateDist::total                   28                       # Number of instructions fetched each cycle (Total)
system.cpu.fetch.branchRate                         0                       # Number of branch fetches per cycle
[...]
system.switch_cpus_1.iq.fu_busy_rate         0.124757                       # FU busy rate (busy events/executed inst)
system.switch_cpus_1.iq.int_inst_queue_reads    352063596                       # Number of integer instruction queue reads
system.switch_cpus_1.iq.int_inst_queue_writes     88303241                       # Number of integer instruction queue writes
system.switch_cpus_1.iq.int_inst_queue_wakeup_accesses     82015100                       # Number of integer instruction queue wakeup accesses
system.switch_cpus_1.iq.fp_inst_queue_reads    277275592                       # Number of floating instruction queue reads
system.switch_cpus_1.iq.fp_inst_queue_writes    139208653                       # Number of floating instruction queue writes
system.switch_cpus_1.iq.fp_inst_queue_wakeup_accesses    125975831                       # Number of floating instruction queue wakeup accesses
system.switch_cpus_1.iq.int_alu_accesses     84676109                       # Number of integer alu accesses
system.switch_cpus_1.iq.fp_alu_accesses     150497357                       # Number of floating point alu accesses
system.switch_cpus_1.iew.lsq.thread0.forwLoads      1410390                       # Number of loads that had data forwarded from stores
system.switch_cpus_1.iew.lsq.thread0.invAddrLoads            0                       # Number of loads ignored due to an invalid address
system.switch_cpus_1.iew.lsq.thread0.squashedLoads      3337301                       # Number of loads squashed
system.switch_cpus_1.iew.lsq.thread0.ignoredResponses           50                       # Number of memory responses ignored because the instruction is squashed
system.switch_cpus_1.iew.lsq.thread0.memOrderViolation         1771                       # Number of memory ordering violations
system.switch_cpus_1.iew.lsq.thread0.squashedStores       796166                       # Number of stores squashed
system.switch_cpus_1.iew.lsq.thread0.invAddrSwpfs            0                       # Number of software prefetches ignored due to an invalid address
system.switch_cpus_1.iew.lsq.thread0.blockedLoads            0                       # Number of blocked loads due to partial load-store forwarding
system.switch_cpus_1.iew.lsq.thread0.rescheduledLoads            0                       # Number of loads that were rescheduled
system.switch_cpus_1.iew.lsq.thread0.cacheBlocked       308837                       # Number of times an access to memory failed due to the cache being blocked
system.switch_cpus_1.iew.iewIdleCycles              0                       # Number of cycles IEW is idle
system.switch_cpus_1.iew.iewSquashCycles       140442                       # Number of cycles IEW is squashing
system.switch_cpus_1.iew.iewBlockCycles      37375002                       # Number of cycles IEW is blocking
system.switch_cpus_1.iew.iewUnblockCycles     12148150                       # Number of cycles IEW is unblocking
system.switch_cpus_1.iew.iewDispatchedInsts    213934440                       # Number of instructions dispatched to IQ
system.switch_cpus_1.iew.iewDispSquashedInsts          622                       # Number of squashed instructions skipped by dispatch
system.switch_cpus_1.iew.iewDispLoadInsts     44137350                       # Number of dispatched load instructions
system.switch_cpus_1.iew.iewDispStoreInsts     13325208                       # Number of dispatched store instructions
system.switch_cpus_1.iew.iewDispNonSpecInsts            0                       # Number of dispatched non-speculative instructions
system.switch_cpus_1.iew.iewIQFullEvents       894317                       # Number of times the IQ has become full, causing a stall
system.switch_cpus_1.iew.iewLSQFullEvents     11013995                       # Number of times the LSQ has become full, causing a stall
system.switch_cpus_1.iew.memOrderViolationEvents         1771                       # Number of memory order violations
system.switch_cpus_1.iew.predictedTakenIncorrect          547                       # Number of branches that were predicted taken incorrectly
system.switch_cpus_1.iew.predictedNotTakenIncorrect        15426                       # Number of branches that were predicted not taken incorrectly
system.switch_cpus_1.iew.branchMispredicts        15973                       # Number of branch mispredicts detected at execute
system.switch_cpus_1.iew.iewExecutedInsts    208881219                       # Number of executed instructions
system.switch_cpus_1.iew.iewExecLoadInsts     44105982                       # Number of load instructions executed
system.switch_cpus_1.iew.iewExecSquashedInsts       207071                       # Number of squashed instructions skipped in execute
system.switch_cpus_1.iew.exec_swp                   0                       # number of swp insts executed
system.switch_cpus_1.iew.exec_nop              179340                       # number of nop insts executed
system.switch_cpus_1.iew.exec_refs           57059584                       # number of memory reference insts executed
system.switch_cpus_1.iew.exec_branches        1499267                       # Number of branches executed
system.switch_cpus_1.iew.exec_stores         12953602                       # Number of stores executed
system.switch_cpus_1.iew.exec_rate           1.128744                       # Inst execution rate
system.switch_cpus_1.iew.wb_sent            208444058                       # cumulative count of insts sent to commit
system.switch_cpus_1.iew.wb_count           207990931                       # cumulative count of insts written-back
system.switch_cpus_1.iew.wb_producers       138545896                       # num instructions producing a value
system.switch_cpus_1.iew.wb_consumers       165955794                       # num instructions consuming a value
system.switch_cpus_1.iew.wb_rate             1.123933                       # insts written-back per cycle
system.switch_cpus_1.iew.wb_fanout           0.834836                       # average fanout of values written-back
system.switch_cpus_1.commit.commitSquashedInsts     11065381                       # The number of squashed insts skipped by commit
system.switch_cpus_1.commit.branchMispredicts        15480                       # The number of times a branch was mispredicted
system.switch_cpus_1.commit.committed_per_cycle::samples    183621275                       # Number of insts commited each cycle
system.switch_cpus_1.commit.committed_per_cycle::mean     1.090143                       # Number of insts commited each cycle
system.switch_cpus_1.commit.committed_per_cycle::stdev     2.538820                       # Number of insts commited each cycle
system.switch_cpus_1.commit.committed_per_cycle::underflows            0      0.00%      0.00% # Number of insts commited each cycle
system.switch_cpus_1.commit.committed_per_cycle::0    148715069     80.99%     80.99% # Number of insts commited each cycle
system.switch_cpus_1.commit.committed_per_cycle::1      3940963      2.15%     83.14% # Number of insts commited each cycle
system.switch_cpus_1.commit.committed_per_cycle::2      2991086      1.63%     84.77% # Number of insts commited each cycle
system.switch_cpus_1.commit.committed_per_cycle::3      2739519      1.49%     86.26% # Number of insts commited each cycle
system.switch_cpus_1.commit.committed_per_cycle::4      2417157      1.32%     87.57% # Number of insts commited each cycle
system.switch_cpus_1.commit.committed_per_cycle::5      2020250      1.10%     88.67% # Number of insts commited each cycle
system.switch_cpus_1.commit.committed_per_cycle::6      1371384      0.75%     89.42% # Number of insts commited each cycle
system.switch_cpus_1.commit.committed_per_cycle::7      1373194      0.75%     90.17% # Number of insts commited each cycle
system.switch_cpus_1.commit.committed_per_cycle::8     18052653      9.83%    100.00% # Number of insts commited each cycle
system.switch_cpus_1.commit.committed_per_cycle::overflows            0      0.00%    100.00% # Number of insts commited each cycle
system.switch_cpus_1.commit.committed_per_cycle::min_value            0                       # Number of insts commited each cycle
system.switch_cpus_1.commit.committed_per_cycle::max_value            8                       # Number of insts commited each cycle
system.switch_cpus_1.commit.committed_per_cycle::total    183621275                       # Number of insts commited each cycle
system.switch_cpus_1.commit.committedInsts    200173456                       # Number of instructions committed
system.switch_cpus_1.commit.committedOps    200173456                       # Number of ops (including micro ops) committed
system.switch_cpus_1.commit.swp_count               0                       # Number of s/w prefetches committed
system.switch_cpus_1.commit.refs             53329056                       # Number of memory references committed
system.switch_cpus_1.commit.loads            40800023                       # Number of loads committed
system.switch_cpus_1.commit.membars                 0                       # Number of memory barriers committed
system.switch_cpus_1.commit.branches          1403066                       # Number of branches committed
system.switch_cpus_1.commit.fp_insts        122294760                       # Number of committed floating point instructions.
system.switch_cpus_1.commit.int_insts       127004953                       # Number of committed integer instructions.
system.switch_cpus_1.commit.function_calls            7                       # Number of function calls committed.
system.switch_cpus_1.commit.op_class_0::No_OpClass       173452      0.09%      0.09% # Class of committed instruction
system.switch_cpus_1.commit.op_class_0::IntAlu     61200061     30.57%     30.66% # Class of committed instruction
system.switch_cpus_1.commit.op_class_0::IntMult            0      0.00%     30.66% # Class of committed instruction
system.switch_cpus_1.commit.op_class_0::IntDiv            0      0.00%     30.66% # Class of committed instruction
system.switch_cpus_1.commit.op_class_0::FloatAdd     35376177     17.67%     48.33% # Class of committed instruction
system.switch_cpus_1.commit.op_class_0::FloatCmp      8364224      4.18%     52.51% # Class of committed instruction
system.switch_cpus_1.commit.op_class_0::FloatCvt     12546336      6.27%     58.78% # Class of committed instruction
system.switch_cpus_1.commit.op_class_0::FloatMult     26817554     13.40%     72.18% # Class of committed instruction
system.switch_cpus_1.commit.op_class_0::FloatMultAcc            0      0.00%     72.18% # Class of committed instruction
system.switch_cpus_1.commit.op_class_0::FloatDiv      2366596      1.18%     73.36% # Class of committed instruction
system.switch_cpus_1.commit.op_class_0::FloatMisc            0      0.00%     73.36% # Class of committed instruction
system.switch_cpus_1.commit.op_class_0::FloatSqrt            0      0.00%     73.36% # Class of committed instruction
system.switch_cpus_1.commit.op_class_0::SimdAdd            0      0.00%     73.36% # Class of committed instruction
system.switch_cpus_1.commit.op_class_0::SimdAddAcc            0      0.00%     73.36% # Class of committed instruction
system.switch_cpus_1.commit.op_class_0::SimdAlu            0      0.00%     73.36% # Class of committed instruction
system.switch_cpus_1.commit.op_class_0::SimdCmp            0      0.00%     73.36% # Class of committed instruction
system.switch_cpus_1.commit.op_class_0::SimdCvt            0      0.00%     73.36% # Class of committed instruction
system.switch_cpus_1.commit.op_class_0::SimdMisc            0      0.00%     73.36% # Class of committed instruction
system.switch_cpus_1.commit.op_class_0::SimdMult            0      0.00%     73.36% # Class of committed instruction
system.switch_cpus_1.commit.op_class_0::SimdMultAcc            0      0.00%     73.36% # Class of committed instruction
system.switch_cpus_1.commit.op_class_0::SimdShift            0      0.00%     73.36% # Class of committed instruction
system.switch_cpus_1.commit.op_class_0::SimdShiftAcc            0      0.00%     73.36% # Class of committed instruction
system.switch_cpus_1.commit.op_class_0::SimdSqrt            0      0.00%     73.36% # Class of committed instruction
system.switch_cpus_1.commit.op_class_0::SimdFloatAdd            0      0.00%     73.36% # Class of committed instruction
system.switch_cpus_1.commit.op_class_0::SimdFloatAlu            0      0.00%     73.36% # Class of committed instruction
system.switch_cpus_1.commit.op_class_0::SimdFloatCmp            0      0.00%     73.36% # Class of committed instruction
system.switch_cpus_1.commit.op_class_0::SimdFloatCvt            0      0.00%     73.36% # Class of committed instruction
system.switch_cpus_1.commit.op_class_0::SimdFloatDiv            0      0.00%     73.36% # Class of committed instruction
system.switch_cpus_1.commit.op_class_0::SimdFloatMisc            0      0.00%     73.36% # Class of committed instruction
system.switch_cpus_1.commit.op_class_0::SimdFloatMult            0      0.00%     73.36% # Class of committed instruction
system.switch_cpus_1.commit.op_class_0::SimdFloatMultAcc            0      0.00%     73.36% # Class of committed instruction
system.switch_cpus_1.commit.op_class_0::SimdFloatSqrt            0      0.00%     73.36% # Class of committed instruction
system.switch_cpus_1.commit.op_class_0::MemRead     12460377      6.22%     79.58% # Class of committed instruction
system.switch_cpus_1.commit.op_class_0::MemWrite      4044806      2.02%     81.60% # Class of committed instruction
system.switch_cpus_1.commit.op_class_0::FloatMemRead     28339646     14.16%     95.76% # Class of committed instruction
system.switch_cpus_1.commit.op_class_0::FloatMemWrite      8484227      4.24%    100.00% # Class of committed instruction
system.switch_cpus_1.commit.op_class_0::IprAccess            0      0.00%    100.00% # Class of committed instruction
system.switch_cpus_1.commit.op_class_0::InstPrefetch            0      0.00%    100.00% # Class of committed instruction
system.switch_cpus_1.commit.op_class_0::total    200173456                       # Class of committed instruction
system.switch_cpus_1.commit.bw_lim_events     18052653                       # number cycles where commit BW limit reached
system.switch_cpus_1.rob.rob_reads          375202349                       # The number of ROB reads
system.switch_cpus_1.rob.rob_writes         423911228                       # The number of ROB writes
system.switch_cpus_1.timesIdled                    14                       # Number of times that the entire CPU went into an idle state and unscheduled itself
system.switch_cpus_1.idleCycles                  1578                       # Total number of cycles that the CPU has spent unscheduled due to idling
system.switch_cpus_1.committedInsts         200000004                       # Number of Instructions Simulated
system.switch_cpus_1.committedOps           200000004                       # Number of Ops (including micro ops) Simulated
system.switch_cpus_1.cpi                     0.925281                       # CPI: Cycles Per Instruction
system.switch_cpus_1.cpi_total               0.925281                       # CPI: Total CPI of All Threads
system.switch_cpus_1.ipc                     1.080752                       # IPC: Instructions Per Cycle
system.switch_cpus_1.ipc_total               1.080752                       # IPC: Total IPC of All Threads
system.switch_cpus_1.int_regfile_reads      175646710                       # number of integer regfile reads
system.switch_cpus_1.int_regfile_writes      84673089                       # number of integer regfile writes
system.switch_cpus_1.fp_regfile_reads       170480676                       # number of floating regfile reads
system.switch_cpus_1.fp_regfile_writes      108911439                       # number of floating regfile writes
system.tol3bus.snoop_filter.tot_requests      9621275                       # Total number of requests made to the snoop filter.
system.tol3bus.snoop_filter.hit_single_requests      4808449                       # Number of requests hitting in the snoop filter with a single holder of the requested data.
system.tol3bus.snoop_filter.hit_multi_requests            0                       # Number of requests hitting in the snoop filter with multiple (>1) holders of the requested data.
system.tol3bus.snoop_filter.tot_snoops         145177                       # Total number of snoops made to the snoop filter.
system.tol3bus.snoop_filter.hit_single_snoops       145177                       # Number of snoops hitting in the snoop filter with a single holder of the requested data.
system.tol3bus.snoop_filter.hit_multi_snoops            0                       # Number of snoops hitting in the snoop filter with multiple (>1) holders of the requested data.
system.tol3bus.pwrStateResidencyTicks::UNDEFINED 118517691011328                       # Cumulative time (in ticks) in various power states
system.tol3bus.trans_dist::ReadResp           4255835                       # Transaction distribution
system.tol3bus.trans_dist::WritebackDirty      3571439                       # Transaction distribution
system.tol3bus.trans_dist::CleanEvict         5603523                       # Transaction distribution
system.tol3bus.trans_dist::UpgradeReq               2                       # Transaction distribution
system.tol3bus.trans_dist::UpgradeResp              2                       # Transaction distribution
system.tol3bus.trans_dist::ReadExReq           556991                       # Transaction distribution
system.tol3bus.trans_dist::ReadExResp          556991                       # Transaction distribution
system.tol3bus.trans_dist::ReadSharedReq      4255835                       # Transaction distribution
system.tol3bus.pkt_count_system.cpu.l2.mem_side::system.l3.cpu_side     14434103                       # Packet count per connected master and slave (bytes)
system.tol3bus.pkt_size_system.cpu.l2.mem_side::system.l3.cpu_side    424702400                       # Cumulative packet size per connected master and slave (bytes)
system.tol3bus.snoops                         4366515                       # Total snoops (count)
system.tol3bus.snoopTraffic                 111890560                       # Total snoop traffic (bytes)
system.tol3bus.snoop_fanout::samples          9179343                       # Request fanout histogram
system.tol3bus.snoop_fanout::mean            0.015816                       # Request fanout histogram
system.tol3bus.snoop_fanout::stdev           0.124762                       # Request fanout histogram
system.tol3bus.snoop_fanout::underflows             0      0.00%      0.00% # Request fanout histogram
system.tol3bus.snoop_fanout::0                9034166     98.42%     98.42% # Request fanout histogram
system.tol3bus.snoop_fanout::1                 145177      1.58%    100.00% # Request fanout histogram
system.tol3bus.snoop_fanout::overflows              0      0.00%    100.00% # Request fanout histogram
system.tol3bus.snoop_fanout::min_value              0                       # Request fanout histogram
system.tol3bus.snoop_fanout::max_value              1                       # Request fanout histogram
system.tol3bus.snoop_fanout::total            9179343                       # Request fanout histogram
system.tol3bus.reqLayer0.occupancy         3810993192                       # Layer occupancy (ticks)
system.tol3bus.reqLayer0.utilization              0.3                       # Layer utilization (%)
system.tol3bus.respLayer0.occupancy        3205342782                       # Layer occupancy (ticks)
system.tol3bus.respLayer0.utilization             0.2                       # Layer utilization (%)

---------- End Simulation Statistics   ----------
