
---------- Begin Simulation Statistics ----------
sim_seconds                                  1.093754                       # Number of seconds simulated
sim_ticks                                1093753768716                       # Number of ticks simulated
final_tick                               18747095159646                       # Number of ticks from beginning of simulation (restored from checkpoints and never reset)
sim_freq                                 1000000000000                       # Frequency of simulated ticks
host_inst_rate                                 479875                       # Simulator instruction rate (inst/s)
host_op_rate                                   479875                       # Simulator op (including micro ops) rate (op/s)
host_tick_rate                              437387842                       # Simulator tick rate (ticks/s)
host_mem_usage                                2395212                       # Number of bytes of host memory used
host_seconds                                  2500.65                       # Real time elapsed on the host
sim_insts                                  1200000011                       # Number of instructions simulated
sim_ops                                    1200000011                       # Number of ops (including micro ops) simulated
system.voltage_domain.voltage                       1                       # Voltage in Volts
system.clk_domain.clock                          1000                       # Clock period in ticks
system.mem_ctrls0.pwrStateResidencyTicks::UNDEFINED 18747095159646                       # Cumulative time (in ticks) in various power states
system.mem_ctrls0.bytes_read::cpu.inst            192                       # Number of bytes read from this memory
system.mem_ctrls0.bytes_read::switch_cpus.inst       129344                       # Number of bytes read from this memory
system.mem_ctrls0.bytes_read::switch_cpus.data      8091392                       # Number of bytes read from this memory
system.mem_ctrls0.bytes_read::switch_cpus_1.inst        17024                       # Number of bytes read from this memory
system.mem_ctrls0.bytes_read::switch_cpus_1.data      1371328                       # Number of bytes read from this memory
system.mem_ctrls0.bytes_read::total           9609280                       # Number of bytes read from this memory
system.mem_ctrls0.bytes_inst_read::cpu.inst          192                       # Number of instructions bytes read from this memory
system.mem_ctrls0.bytes_inst_read::switch_cpus.inst       129344                       # Number of instructions bytes read from this memory
system.mem_ctrls0.bytes_inst_read::switch_cpus_1.inst        17024                       # Number of instructions bytes read from this memory
system.mem_ctrls0.bytes_inst_read::total       146560                       # Number of instructions bytes read from this memory
system.mem_ctrls0.bytes_written::writebacks      5932992                       # Number of bytes written to this memory
system.mem_ctrls0.bytes_written::total        5932992                       # Number of bytes written to this memory
system.mem_ctrls0.num_reads::cpu.inst               3                       # Number of read requests responded to by this memory
system.mem_ctrls0.num_reads::switch_cpus.inst         2021                       # Number of read requests responded to by this memory
system.mem_ctrls0.num_reads::switch_cpus.data       126428                       # Number of read requests responded to by this memory
system.mem_ctrls0.num_reads::switch_cpus_1.inst          266                       # Number of read requests responded to by this memory
system.mem_ctrls0.num_reads::switch_cpus_1.data        21427                       # Number of read requests responded to by this memory
system.mem_ctrls0.num_reads::total             150145                       # Number of read requests responded to by this memory
system.mem_ctrls0.num_writes::writebacks        92703                       # Number of write requests responded to by this memory
system.mem_ctrls0.num_writes::total             92703                       # Number of write requests responded to by this memory
system.mem_ctrls0.bw_read::cpu.inst               176                       # Total read bandwidth from this memory (bytes/s)
system.mem_ctrls0.bw_read::switch_cpus.inst       118257                       # Total read bandwidth from this memory (bytes/s)
system.mem_ctrls0.bw_read::switch_cpus.data      7397819                       # Total read bandwidth from this memory (bytes/s)
system.mem_ctrls0.bw_read::switch_cpus_1.inst        15565                       # Total read bandwidth from this memory (bytes/s)
system.mem_ctrls0.bw_read::switch_cpus_1.data      1253781                       # Total read bandwidth from this memory (bytes/s)
system.mem_ctrls0.bw_read::total              8785597                       # Total read bandwidth from this memory (bytes/s)
system.mem_ctrls0.bw_inst_read::cpu.inst          176                       # Instruction read bandwidth from this memory (bytes/s)
system.mem_ctrls0.bw_inst_read::switch_cpus.inst       118257                       # Instruction read bandwidth from this memory (bytes/s)
system.mem_ctrls0.bw_inst_read::switch_cpus_1.inst        15565                       # Instruction read bandwidth from this memory (bytes/s)
system.mem_ctrls0.bw_inst_read::total          133997                       # Instruction read bandwidth from this memory (bytes/s)
system.mem_ctrls0.bw_write::writebacks        5424431                       # Write bandwidth from this memory (bytes/s)
system.mem_ctrls0.bw_write::total             5424431                       # Write bandwidth from this memory (bytes/s)
system.mem_ctrls0.bw_total::writebacks        5424431                       # Total bandwidth to/from this memory (bytes/s)
system.mem_ctrls0.bw_total::cpu.inst              176                       # Total bandwidth to/from this memory (bytes/s)
system.mem_ctrls0.bw_total::switch_cpus.inst       118257                       # Total bandwidth to/from this memory (bytes/s)
system.mem_ctrls0.bw_total::switch_cpus.data      7397819                       # Total bandwidth to/from this memory (bytes/s)
system.mem_ctrls0.bw_total::switch_cpus_1.inst        15565                       # Total bandwidth to/from this memory (bytes/s)
system.mem_ctrls0.bw_total::switch_cpus_1.data      1253781                       # Total bandwidth to/from this memory (bytes/s)
system.mem_ctrls0.bw_total::total            14210028                       # Total bandwidth to/from this memory (bytes/s)
system.mem_ctrls0.readReqs                     150145                       # Number of read requests accepted
system.mem_ctrls0.writeReqs                     92703                       # Number of write requests accepted
system.mem_ctrls0.readBursts                   150145                       # Number of DRAM read bursts, including those serviced by the write queue
system.mem_ctrls0.writeBursts                   92703                       # Number of DRAM write bursts, including those merged in the write queue
system.mem_ctrls0.bytesReadDRAM               9602112                       # Total number of bytes read from DRAM
system.mem_ctrls0.bytesReadWrQ                   7168                       # Total number of bytes read from write queue
system.mem_ctrls0.bytesWritten                5931072                       # Total number of bytes written to DRAM
system.mem_ctrls0.bytesReadSys                9609280                       # Total read bytes from the system interface side
system.mem_ctrls0.bytesWrittenSys             5932992                       # Total written bytes from the system interface side
system.mem_ctrls0.servicedByWrQ                   112                       # Number of DRAM read bursts serviced by the write queue
system.mem_ctrls0.mergedWrBursts                    0                       # Number of DRAM write bursts merged with an existing one
system.mem_ctrls0.neitherReadNorWriteReqs            0                       # Number of requests that are neither read nor write
system.mem_ctrls0.perBankRdBursts::0             9065                       # Per bank write bursts
system.mem_ctrls0.perBankRdBursts::1             9360                       # Per bank write bursts
system.mem_ctrls0.perBankRdBursts::2             9440                       # Per bank write bursts
system.mem_ctrls0.perBankRdBursts::3            10001                       # Per bank write bursts
system.mem_ctrls0.perBankRdBursts::4             9952                       # Per bank write bursts
system.mem_ctrls0.perBankRdBursts::5             9524                       # Per bank write bursts
system.mem_ctrls0.perBankRdBursts::6             8904                       # Per bank write bursts
system.mem_ctrls0.perBankRdBursts::7             9084                       # Per bank write bursts
system.mem_ctrls0.perBankRdBursts::8             9601                       # Per bank write bursts
system.mem_ctrls0.perBankRdBursts::9             9804                       # Per bank write bursts
system.mem_ctrls0.perBankRdBursts::10            9189                       # Per bank write bursts
system.mem_ctrls0.perBankRdBursts::11            9593                       # Per bank write bursts
system.mem_ctrls0.perBankRdBursts::12            9374                       # Per bank write bursts
system.mem_ctrls0.perBankRdBursts::13            9238                       # Per bank write bursts
system.mem_ctrls0.perBankRdBursts::14            9052                       # Per bank write bursts
system.mem_ctrls0.perBankRdBursts::15            8852                       # Per bank write bursts
system.mem_ctrls0.perBankWrBursts::0             5901                       # Per bank write bursts
system.mem_ctrls0.perBankWrBursts::1             6021                       # Per bank write bursts
system.mem_ctrls0.perBankWrBursts::2             5838                       # Per bank write bursts
system.mem_ctrls0.perBankWrBursts::3             6183                       # Per bank write bursts
system.mem_ctrls0.perBankWrBursts::4             6064                       # Per bank write bursts
system.mem_ctrls0.perBankWrBursts::5             5796                       # Per bank write bursts
system.mem_ctrls0.perBankWrBursts::6             5345                       # Per bank write bursts
system.mem_ctrls0.perBankWrBursts::7             5416                       # Per bank write bursts
system.mem_ctrls0.perBankWrBursts::8             5507                       # Per bank write bursts
system.mem_ctrls0.perBankWrBursts::9             5691                       # Per bank write bursts
system.mem_ctrls0.perBankWrBursts::10            5836                       # Per bank write bursts
system.mem_ctrls0.perBankWrBursts::11            6254                       # Per bank write bursts
system.mem_ctrls0.perBankWrBursts::12            5959                       # Per bank write bursts
system.mem_ctrls0.perBankWrBursts::13            5702                       # Per bank write bursts
system.mem_ctrls0.perBankWrBursts::14            5579                       # Per bank write bursts
system.mem_ctrls0.perBankWrBursts::15            5581                       # Per bank write bursts
system.mem_ctrls0.numRdRetry                        0                       # Number of times read queue was full causing retry
system.mem_ctrls0.numWrRetry                        0                       # Number of times write queue was full causing retry
system.mem_ctrls0.totGap                 1093752948537                       # Total gap between requests
system.mem_ctrls0.readPktSize::0                    0                       # Read request sizes (log2)
system.mem_ctrls0.readPktSize::1                    0                       # Read request sizes (log2)
system.mem_ctrls0.readPktSize::2                    0                       # Read request sizes (log2)
system.mem_ctrls0.readPktSize::3                    0                       # Read request sizes (log2)
system.mem_ctrls0.readPktSize::4                    0                       # Read request sizes (log2)
system.mem_ctrls0.readPktSize::5                    0                       # Read request sizes (log2)
system.mem_ctrls0.readPktSize::6               150145                       # Read request sizes (log2)
system.mem_ctrls0.writePktSize::0                   0                       # Write request sizes (log2)
system.mem_ctrls0.writePktSize::1                   0                       # Write request sizes (log2)
system.mem_ctrls0.writePktSize::2                   0                       # Write request sizes (log2)
system.mem_ctrls0.writePktSize::3                   0                       # Write request sizes (log2)
system.mem_ctrls0.writePktSize::4                   0                       # Write request sizes (log2)
system.mem_ctrls0.writePktSize::5                   0                       # Write request sizes (log2)
system.mem_ctrls0.writePktSize::6               92703                       # Write request sizes (log2)
system.mem_ctrls0.rdQLenPdf::0                 148321                       # What read queue length does an incoming req see
system.mem_ctrls0.rdQLenPdf::1                   1665                       # What read queue length does an incoming req see
system.mem_ctrls0.rdQLenPdf::2                     47                       # What read queue length does an incoming req see
system.mem_ctrls0.rdQLenPdf::3                      0                       # What read queue length does an incoming req see
system.mem_ctrls0.rdQLenPdf::4                      0                       # What read queue length does an incoming req see
system.mem_ctrls0.rdQLenPdf::5                      0                       # What read queue length does an incoming req see
system.mem_ctrls0.rdQLenPdf::6                      0                       # What read queue length does an incoming req see
system.mem_ctrls0.rdQLenPdf::7                      0                       # What read queue length does an incoming req see
system.mem_ctrls0.rdQLenPdf::8                      0                       # What read queue length does an incoming req see
system.mem_ctrls0.rdQLenPdf::9                      0                       # What read queue length does an incoming req see
system.mem_ctrls0.rdQLenPdf::10                     0                       # What read queue length does an incoming req see
system.mem_ctrls0.rdQLenPdf::11                     0                       # What read queue length does an incoming req see
system.mem_ctrls0.rdQLenPdf::12                     0                       # What read queue length does an incoming req see
system.mem_ctrls0.rdQLenPdf::13                     0                       # What read queue length does an incoming req see
system.mem_ctrls0.rdQLenPdf::14                     0                       # What read queue length does an incoming req see
system.mem_ctrls0.rdQLenPdf::15                     0                       # What read queue length does an incoming req see
system.mem_ctrls0.rdQLenPdf::16                     0                       # What read queue length does an incoming req see
system.mem_ctrls0.rdQLenPdf::17                     0                       # What read queue length does an incoming req see
system.mem_ctrls0.rdQLenPdf::18                     0                       # What read queue length does an incoming req see
system.mem_ctrls0.rdQLenPdf::19                     0                       # What read queue length does an incoming req see
system.mem_ctrls0.rdQLenPdf::20                     0                       # What read queue length does an incoming req see
system.mem_ctrls0.rdQLenPdf::21                     0                       # What read queue length does an incoming req see
system.mem_ctrls0.rdQLenPdf::22                     0                       # What read queue length does an incoming req see
system.mem_ctrls0.rdQLenPdf::23                     0                       # What read queue length does an incoming req see
system.mem_ctrls0.rdQLenPdf::24                     0                       # What read queue length does an incoming req see
system.mem_ctrls0.rdQLenPdf::25                     0                       # What read queue length does an incoming req see
system.mem_ctrls0.rdQLenPdf::26                     0                       # What read queue length does an incoming req see
system.mem_ctrls0.rdQLenPdf::27                     0                       # What read queue length does an incoming req see
system.mem_ctrls0.rdQLenPdf::28                     0                       # What read queue length does an incoming req see
system.mem_ctrls0.rdQLenPdf::29                     0                       # What read queue length does an incoming req see
system.mem_ctrls0.rdQLenPdf::30                     0                       # What read queue length does an incoming req see
system.mem_ctrls0.rdQLenPdf::31                     0                       # What read queue length does an incoming req see
system.mem_ctrls0.wrQLenPdf::0                      2                       # What write queue length does an incoming req see
system.mem_ctrls0.wrQLenPdf::1                      2                       # What write queue length does an incoming req see
system.mem_ctrls0.wrQLenPdf::2                      2                       # What write queue length does an incoming req see
system.mem_ctrls0.wrQLenPdf::3                      2                       # What write queue length does an incoming req see
system.mem_ctrls0.wrQLenPdf::4                      2                       # What write queue length does an incoming req see
system.mem_ctrls0.wrQLenPdf::5                      2                       # What write queue length does an incoming req see
system.mem_ctrls0.wrQLenPdf::6                      2                       # What write queue length does an incoming req see
system.mem_ctrls0.wrQLenPdf::7                      2                       # What write queue length does an incoming req see
system.mem_ctrls0.wrQLenPdf::8                      2                       # What write queue length does an incoming req see
system.mem_ctrls0.wrQLenPdf::9                      2                       # What write queue length does an incoming req see
system.mem_ctrls0.wrQLenPdf::10                     2                       # What write queue length does an incoming req see
system.mem_ctrls0.wrQLenPdf::11                     2                       # What write queue length does an incoming req see
system.mem_ctrls0.wrQLenPdf::12                     2                       # What write queue length does an incoming req see
system.mem_ctrls0.wrQLenPdf::13                     2                       # What write queue length does an incoming req see
system.mem_ctrls0.wrQLenPdf::14                     2                       # What write queue length does an incoming req see
system.mem_ctrls0.wrQLenPdf::15                  4140                       # What write queue length does an incoming req see
system.mem_ctrls0.wrQLenPdf::16                  4211                       # What write queue length does an incoming req see
system.mem_ctrls0.wrQLenPdf::17                  5170                       # What write queue length does an incoming req see
system.mem_ctrls0.wrQLenPdf::18                  5270                       # What write queue length does an incoming req see
system.mem_ctrls0.wrQLenPdf::19                  5260                       # What write queue length does an incoming req see
system.mem_ctrls0.wrQLenPdf::20                  5269                       # What write queue length does an incoming req see
system.mem_ctrls0.wrQLenPdf::21                  5277                       # What write queue length does an incoming req see
system.mem_ctrls0.wrQLenPdf::22                  5273                       # What write queue length does an incoming req see
system.mem_ctrls0.wrQLenPdf::23                  5275                       # What write queue length does an incoming req see
system.mem_ctrls0.wrQLenPdf::24                  5276                       # What write queue length does an incoming req see
system.mem_ctrls0.wrQLenPdf::25                  5271                       # What write queue length does an incoming req see
system.mem_ctrls0.wrQLenPdf::26                  5270                       # What write queue length does an incoming req see
system.mem_ctrls0.wrQLenPdf::27                  5268                       # What write queue length does an incoming req see
system.mem_ctrls0.wrQLenPdf::28                  5277                       # What write queue length does an incoming req see
system.mem_ctrls0.wrQLenPdf::29                  5300                       # What write queue length does an incoming req see
system.mem_ctrls0.wrQLenPdf::30                  5267                       # What write queue length does an incoming req see
system.mem_ctrls0.wrQLenPdf::31                  5242                       # What write queue length does an incoming req see
system.mem_ctrls0.wrQLenPdf::32                  5239                       # What write queue length does an incoming req see
system.mem_ctrls0.wrQLenPdf::33                    91                       # What write queue length does an incoming req see
system.mem_ctrls0.wrQLenPdf::34                    16                       # What write queue length does an incoming req see
system.mem_ctrls0.wrQLenPdf::35                     6                       # What write queue length does an incoming req see
system.mem_ctrls0.wrQLenPdf::36                     4                       # What write queue length does an incoming req see
system.mem_ctrls0.wrQLenPdf::37                     1                       # What write queue length does an incoming req see
system.mem_ctrls0.wrQLenPdf::38                     0                       # What write queue length does an incoming req see
system.mem_ctrls0.wrQLenPdf::39                     0                       # What write queue length does an incoming req see
system.mem_ctrls0.wrQLenPdf::40                     0                       # What write queue length does an incoming req see
system.mem_ctrls0.wrQLenPdf::41                     0                       # What write queue length does an incoming req see
system.mem_ctrls0.wrQLenPdf::42                     0                       # What write queue length does an incoming req see
system.mem_ctrls0.wrQLenPdf::43                     0                       # What write queue length does an incoming req see
system.mem_ctrls0.wrQLenPdf::44                     0                       # What write queue length does an incoming req see
system.mem_ctrls0.wrQLenPdf::45                     0                       # What write queue length does an incoming req see
system.mem_ctrls0.wrQLenPdf::46                     0                       # What write queue length does an incoming req see
system.mem_ctrls0.wrQLenPdf::47                     0                       # What write queue length does an incoming req see
system.mem_ctrls0.wrQLenPdf::48                     0                       # What write queue length does an incoming req see
system.mem_ctrls0.wrQLenPdf::49                     0                       # What write queue length does an incoming req see
system.mem_ctrls0.wrQLenPdf::50                     0                       # What write queue length does an incoming req see
system.mem_ctrls0.wrQLenPdf::51                     0                       # What write queue length does an incoming req see
system.mem_ctrls0.wrQLenPdf::52                     0                       # What write queue length does an incoming req see
system.mem_ctrls0.wrQLenPdf::53                     0                       # What write queue length does an incoming req see
system.mem_ctrls0.wrQLenPdf::54                     0                       # What write queue length does an incoming req see
system.mem_ctrls0.wrQLenPdf::55                     0                       # What write queue length does an incoming req see
system.mem_ctrls0.wrQLenPdf::56                     0                       # What write queue length does an incoming req see
system.mem_ctrls0.wrQLenPdf::57                     0                       # What write queue length does an incoming req see
system.mem_ctrls0.wrQLenPdf::58                     0                       # What write queue length does an incoming req see
system.mem_ctrls0.wrQLenPdf::59                     0                       # What write queue length does an incoming req see
system.mem_ctrls0.wrQLenPdf::60                     0                       # What write queue length does an incoming req see
system.mem_ctrls0.wrQLenPdf::61                     0                       # What write queue length does an incoming req see
system.mem_ctrls0.wrQLenPdf::62                     0                       # What write queue length does an incoming req see
system.mem_ctrls0.wrQLenPdf::63                     0                       # What write queue length does an incoming req see
system.mem_ctrls0.bytesPerActivate::samples       211460                       # Bytes accessed per row activation
system.mem_ctrls0.bytesPerActivate::mean    73.456843                       # Bytes accessed per row activation
system.mem_ctrls0.bytesPerActivate::gmean    68.504051                       # Bytes accessed per row activation
system.mem_ctrls0.bytesPerActivate::stdev    58.055083                       # Bytes accessed per row activation
system.mem_ctrls0.bytesPerActivate::0-127       195841     92.61%     92.61% # Bytes accessed per row activation
system.mem_ctrls0.bytesPerActivate::128-255        13388      6.33%     98.94% # Bytes accessed per row activation
system.mem_ctrls0.bytesPerActivate::256-383          926      0.44%     99.38% # Bytes accessed per row activation
system.mem_ctrls0.bytesPerActivate::384-511          349      0.17%     99.55% # Bytes accessed per row activation
system.mem_ctrls0.bytesPerActivate::512-639          228      0.11%     99.66% # Bytes accessed per row activation
system.mem_ctrls0.bytesPerActivate::640-767          141      0.07%     99.72% # Bytes accessed per row activation
system.mem_ctrls0.bytesPerActivate::768-895          136      0.06%     99.79% # Bytes accessed per row activation
system.mem_ctrls0.bytesPerActivate::896-1023          105      0.05%     99.84% # Bytes accessed per row activation
system.mem_ctrls0.bytesPerActivate::1024-1151          346      0.16%    100.00% # Bytes accessed per row activation
system.mem_ctrls0.bytesPerActivate::total       211460                       # Bytes accessed per row activation
system.mem_ctrls0.rdPerTurnAround::samples         5240                       # Reads before turning the bus around for writes
system.mem_ctrls0.rdPerTurnAround::mean     28.632252                       # Reads before turning the bus around for writes
system.mem_ctrls0.rdPerTurnAround::stdev   356.420093                       # Reads before turning the bus around for writes
system.mem_ctrls0.rdPerTurnAround::0-1023         5239     99.98%     99.98% # Reads before turning the bus around for writes
system.mem_ctrls0.rdPerTurnAround::25600-26623            1      0.02%    100.00% # Reads before turning the bus around for writes
system.mem_ctrls0.rdPerTurnAround::total         5240                       # Reads before turning the bus around for writes
system.mem_ctrls0.wrPerTurnAround::samples         5240                       # Writes before turning the bus around for reads
system.mem_ctrls0.wrPerTurnAround::mean     17.685687                       # Writes before turning the bus around for reads
system.mem_ctrls0.wrPerTurnAround::gmean    17.659268                       # Writes before turning the bus around for reads
system.mem_ctrls0.wrPerTurnAround::stdev     0.965854                       # Writes before turning the bus around for reads
system.mem_ctrls0.wrPerTurnAround::16            1067     20.36%     20.36% # Writes before turning the bus around for reads
system.mem_ctrls0.wrPerTurnAround::17              27      0.52%     20.88% # Writes before turning the bus around for reads
system.mem_ctrls0.wrPerTurnAround::18            3762     71.79%     92.67% # Writes before turning the bus around for reads
system.mem_ctrls0.wrPerTurnAround::19             311      5.94%     98.61% # Writes before turning the bus around for reads
system.mem_ctrls0.wrPerTurnAround::20              50      0.95%     99.56% # Writes before turning the bus around for reads
system.mem_ctrls0.wrPerTurnAround::21              12      0.23%     99.79% # Writes before turning the bus around for reads
system.mem_ctrls0.wrPerTurnAround::22               4      0.08%     99.87% # Writes before turning the bus around for reads
system.mem_ctrls0.wrPerTurnAround::23               1      0.02%     99.89% # Writes before turning the bus around for reads
system.mem_ctrls0.wrPerTurnAround::24               3      0.06%     99.94% # Writes before turning the bus around for reads
system.mem_ctrls0.wrPerTurnAround::25               2      0.04%     99.98% # Writes before turning the bus around for reads
system.mem_ctrls0.wrPerTurnAround::32               1      0.02%    100.00% # Writes before turning the bus around for reads
system.mem_ctrls0.wrPerTurnAround::total         5240                       # Writes before turning the bus around for reads
system.mem_ctrls0.totQLat                 27359288759                       # Total ticks spent queuing
system.mem_ctrls0.totMemAccLat            30172407509                       # Total ticks spent from burst creation until serviced by the DRAM
system.mem_ctrls0.totBusLat                 750165000                       # Total ticks spent in databus transfers
system.mem_ctrls0.avgQLat                   182355.14                       # Average queueing delay per DRAM burst
system.mem_ctrls0.avgBusLat                   5000.00                       # Average bus latency per DRAM burst
system.mem_ctrls0.avgMemAccLat              201105.14                       # Average memory access latency per DRAM burst
system.mem_ctrls0.avgRdBW                        8.78                       # Average DRAM read bandwidth in MiByte/s
system.mem_ctrls0.avgWrBW                        5.42                       # Average achieved write bandwidth in MiByte/s
system.mem_ctrls0.avgRdBWSys                     8.79                       # Average system read bandwidth in MiByte/s
system.mem_ctrls0.avgWrBWSys                     5.42                       # Average system write bandwidth in MiByte/s
system.mem_ctrls0.peakBW                     12800.00                       # Theoretical peak bandwidth in MiByte/s
system.mem_ctrls0.busUtil                        0.11                       # Data bus utilization in percentage
system.mem_ctrls0.busUtilRead                    0.07                       # Data bus utilization in percentage for reads
system.mem_ctrls0.busUtilWrite                   0.04                       # Data bus utilization in percentage for writes
system.mem_ctrls0.avgRdQLen                      1.00                       # Average read queue length when enqueuing
system.mem_ctrls0.avgWrQLen                     20.88                       # Average write queue length when enqueuing
system.mem_ctrls0.readRowHits                   21480                       # Number of row buffer hits during reads
system.mem_ctrls0.writeRowHits                   9766                       # Number of row buffer hits during writes
system.mem_ctrls0.readRowHitRate                14.32                       # Row buffer hit rate for reads
system.mem_ctrls0.writeRowHitRate               10.53                       # Row buffer hit rate for writes
system.mem_ctrls0.avgGap                   4503858.17                       # Average gap between requests
system.mem_ctrls0.pageHitRate                   12.87                       # Row buffer hit rate, read and write combined
system.mem_ctrls0_0.actEnergy               759967320                       # Energy for activate commands per rank (pJ)
system.mem_ctrls0_0.preEnergy               403932210                       # Energy for precharge commands per rank (pJ)
system.mem_ctrls0_0.readEnergy              537856200                       # Energy for read commands per rank (pJ)
system.mem_ctrls0_0.writeEnergy             243064080                       # Energy for write commands per rank (pJ)
system.mem_ctrls0_0.refreshEnergy        57457776480.000015                       # Energy for refresh commands per rank (pJ)
system.mem_ctrls0_0.actBackEnergy         19905982890                       # Energy for active background per rank (pJ)
system.mem_ctrls0_0.preBackEnergy          3348447840                       # Energy for precharge background per rank (pJ)
system.mem_ctrls0_0.actPowerDownEnergy   113976659070                       # Energy for active power-down per rank (pJ)
system.mem_ctrls0_0.prePowerDownEnergy    95692948800                       # Energy for precharge power-down per rank (pJ)
system.mem_ctrls0_0.selfRefreshEnergy    143574855795                       # Energy for self refresh per rank (pJ)
system.mem_ctrls0_0.totalEnergy          435929405115                       # Total energy per rank (pJ)
system.mem_ctrls0_0.averagePower           398.562648                       # Core power per rank (mW)
system.mem_ctrls0_0.totalIdleTime        1041316366334                       # Total Idle time Per DRAM Rank
system.mem_ctrls0_0.memoryStateTime::IDLE   6700417292                       # Time in different power states
system.mem_ctrls0_0.memoryStateTime::REF  24453790000                       # Time in different power states
system.mem_ctrls0_0.memoryStateTime::SREF 542169108966                       # Time in different power states
system.mem_ctrls0_0.memoryStateTime::PRE_PDN 249200228555                       # Time in different power states
system.mem_ctrls0_0.memoryStateTime::ACT  21281206837                       # Time in different power states
system.mem_ctrls0_0.memoryStateTime::ACT_PDN 249949017066                       # Time in different power states
system.mem_ctrls0_1.actEnergy               749857080                       # Energy for activate commands per rank (pJ)
system.mem_ctrls0_1.preEnergy               398558490                       # Energy for precharge commands per rank (pJ)
system.mem_ctrls0_1.readEnergy              533379420                       # Energy for read commands per rank (pJ)
system.mem_ctrls0_1.writeEnergy             240688980                       # Energy for write commands per rank (pJ)
system.mem_ctrls0_1.refreshEnergy        57370497600.000015                       # Energy for refresh commands per rank (pJ)
system.mem_ctrls0_1.actBackEnergy         19786740600                       # Energy for active background per rank (pJ)
system.mem_ctrls0_1.preBackEnergy          3355941600                       # Energy for precharge background per rank (pJ)
system.mem_ctrls0_1.actPowerDownEnergy   113287281120                       # Energy for active power-down per rank (pJ)
system.mem_ctrls0_1.prePowerDownEnergy    95627064960                       # Energy for precharge power-down per rank (pJ)
system.mem_ctrls0_1.selfRefreshEnergy    144099837600                       # Energy for self refresh per rank (pJ)
system.mem_ctrls0_1.totalEnergy          435477927510                       # Total energy per rank (pJ)
system.mem_ctrls0_1.averagePower           398.149872                       # Core power per rank (mW)
system.mem_ctrls0_1.totalIdleTime        1041555584398                       # Total Idle time Per DRAM Rank
system.mem_ctrls0_1.memoryStateTime::IDLE   6726835728                       # Time in different power states
system.mem_ctrls0_1.memoryStateTime::REF  24417620000                       # Time in different power states
system.mem_ctrls0_1.memoryStateTime::SREF 544094034716                       # Time in different power states
system.mem_ctrls0_1.memoryStateTime::PRE_PDN 249028743944                       # Time in different power states
system.mem_ctrls0_1.memoryStateTime::ACT  21049327953                       # Time in different power states
system.mem_ctrls0_1.memoryStateTime::ACT_PDN 248437206375                       # Time in different power states
system.mem_ctrls1.pwrStateResidencyTicks::UNDEFINED 18747095159646                       # Cumulative time (in ticks) in various power states
system.mem_ctrls1.bytes_read::cpu.inst            128                       # Number of bytes read from this memory
system.mem_ctrls1.bytes_read::cpu.data            192                       # Number of bytes read from this memory
system.mem_ctrls1.bytes_read::switch_cpus.inst       129280                       # Number of bytes read from this memory
system.mem_ctrls1.bytes_read::switch_cpus.data      8114240                       # Number of bytes read from this memory
system.mem_ctrls1.bytes_read::switch_cpus_1.inst        17344                       # Number of bytes read from this memory
system.mem_ctrls1.bytes_read::switch_cpus_1.data      1382464                       # Number of bytes read from this memory
system.mem_ctrls1.bytes_read::total           9643648                       # Number of bytes read from this memory
system.mem_ctrls1.bytes_inst_read::cpu.inst          128                       # Number of instructions bytes read from this memory
system.mem_ctrls1.bytes_inst_read::switch_cpus.inst       129280                       # Number of instructions bytes read from this memory
system.mem_ctrls1.bytes_inst_read::switch_cpus_1.inst        17344                       # Number of instructions bytes read from this memory
system.mem_ctrls1.bytes_inst_read::total       146752                       # Number of instructions bytes read from this memory
system.mem_ctrls1.bytes_written::writebacks      5945792                       # Number of bytes written to this memory
system.mem_ctrls1.bytes_written::total        5945792                       # Number of bytes written to this memory
system.mem_ctrls1.num_reads::cpu.inst               2                       # Number of read requests responded to by this memory
system.mem_ctrls1.num_reads::cpu.data               3                       # Number of read requests responded to by this memory
system.mem_ctrls1.num_reads::switch_cpus.inst         2020                       # Number of read requests responded to by this memory
system.mem_ctrls1.num_reads::switch_cpus.data       126785                       # Number of read requests responded to by this memory
system.mem_ctrls1.num_reads::switch_cpus_1.inst          271                       # Number of read requests responded to by this memory
system.mem_ctrls1.num_reads::switch_cpus_1.data        21601                       # Number of read requests responded to by this memory
system.mem_ctrls1.num_reads::total             150682                       # Number of read requests responded to by this memory
system.mem_ctrls1.num_writes::writebacks        92903                       # Number of write requests responded to by this memory
system.mem_ctrls1.num_writes::total             92903                       # Number of write requests responded to by this memory
system.mem_ctrls1.bw_read::cpu.inst               117                       # Total read bandwidth from this memory (bytes/s)
system.mem_ctrls1.bw_read::cpu.data               176                       # Total read bandwidth from this memory (bytes/s)
system.mem_ctrls1.bw_read::switch_cpus.inst       118198                       # Total read bandwidth from this memory (bytes/s)
system.mem_ctrls1.bw_read::switch_cpus.data      7418708                       # Total read bandwidth from this memory (bytes/s)
system.mem_ctrls1.bw_read::switch_cpus_1.inst        15857                       # Total read bandwidth from this memory (bytes/s)
system.mem_ctrls1.bw_read::switch_cpus_1.data      1263963                       # Total read bandwidth from this memory (bytes/s)
system.mem_ctrls1.bw_read::total              8817019                       # Total read bandwidth from this memory (bytes/s)
system.mem_ctrls1.bw_inst_read::cpu.inst          117                       # Instruction read bandwidth from this memory (bytes/s)
system.mem_ctrls1.bw_inst_read::switch_cpus.inst       118198                       # Instruction read bandwidth from this memory (bytes/s)
system.mem_ctrls1.bw_inst_read::switch_cpus_1.inst        15857                       # Instruction read bandwidth from this memory (bytes/s)
system.mem_ctrls1.bw_inst_read::total          134173                       # Instruction read bandwidth from this memory (bytes/s)
system.mem_ctrls1.bw_write::writebacks        5436134                       # Write bandwidth from this memory (bytes/s)
system.mem_ctrls1.bw_write::total             5436134                       # Write bandwidth from this memory (bytes/s)
system.mem_ctrls1.bw_total::writebacks        5436134                       # Total bandwidth to/from this memory (bytes/s)
system.mem_ctrls1.bw_total::cpu.inst              117                       # Total bandwidth to/from this memory (bytes/s)
system.mem_ctrls1.bw_total::cpu.data              176                       # Total bandwidth to/from this memory (bytes/s)
system.mem_ctrls1.bw_total::switch_cpus.inst       118198                       # Total bandwidth to/from this memory (bytes/s)
system.mem_ctrls1.bw_total::switch_cpus.data      7418708                       # Total bandwidth to/from this memory (bytes/s)
system.mem_ctrls1.bw_total::switch_cpus_1.inst        15857                       # Total bandwidth to/from this memory (bytes/s)
system.mem_ctrls1.bw_total::switch_cpus_1.data      1263963                       # Total bandwidth to/from this memory (bytes/s)
system.mem_ctrls1.bw_total::total            14253153                       # Total bandwidth to/from this memory (bytes/s)
system.mem_ctrls1.readReqs                     150682                       # Number of read requests accepted
system.mem_ctrls1.writeReqs                     92903                       # Number of write requests accepted
system.mem_ctrls1.readBursts                   150682                       # Number of DRAM read bursts, including those serviced by the write queue
system.mem_ctrls1.writeBursts                   92903                       # Number of DRAM write bursts, including those merged in the write queue
system.mem_ctrls1.bytesReadDRAM               9635904                       # Total number of bytes read from DRAM
system.mem_ctrls1.bytesReadWrQ                   7744                       # Total number of bytes read from write queue
system.mem_ctrls1.bytesWritten                5944768                       # Total number of bytes written to DRAM
system.mem_ctrls1.bytesReadSys                9643648                       # Total read bytes from the system interface side
system.mem_ctrls1.bytesWrittenSys             5945792                       # Total written bytes from the system interface side
system.mem_ctrls1.servicedByWrQ                   121                       # Number of DRAM read bursts serviced by the write queue
system.mem_ctrls1.mergedWrBursts                    0                       # Number of DRAM write bursts merged with an existing one
system.mem_ctrls1.neitherReadNorWriteReqs            0                       # Number of requests that are neither read nor write
system.mem_ctrls1.perBankRdBursts::0             9192                       # Per bank write bursts
system.mem_ctrls1.perBankRdBursts::1             9402                       # Per bank write bursts
system.mem_ctrls1.perBankRdBursts::2             9527                       # Per bank write bursts
system.mem_ctrls1.perBankRdBursts::3             9935                       # Per bank write bursts
system.mem_ctrls1.perBankRdBursts::4             9855                       # Per bank write bursts
system.mem_ctrls1.perBankRdBursts::5             9712                       # Per bank write bursts
system.mem_ctrls1.perBankRdBursts::6             8904                       # Per bank write bursts
system.mem_ctrls1.perBankRdBursts::7             9227                       # Per bank write bursts
system.mem_ctrls1.perBankRdBursts::8             9571                       # Per bank write bursts
system.mem_ctrls1.perBankRdBursts::9             9842                       # Per bank write bursts
system.mem_ctrls1.perBankRdBursts::10            9258                       # Per bank write bursts
system.mem_ctrls1.perBankRdBursts::11            9677                       # Per bank write bursts
system.mem_ctrls1.perBankRdBursts::12            9475                       # Per bank write bursts
system.mem_ctrls1.perBankRdBursts::13            9232                       # Per bank write bursts
system.mem_ctrls1.perBankRdBursts::14            8818                       # Per bank write bursts
system.mem_ctrls1.perBankRdBursts::15            8934                       # Per bank write bursts
system.mem_ctrls1.perBankWrBursts::0             5908                       # Per bank write bursts
system.mem_ctrls1.perBankWrBursts::1             6052                       # Per bank write bursts
system.mem_ctrls1.perBankWrBursts::2             5873                       # Per bank write bursts
system.mem_ctrls1.perBankWrBursts::3             6032                       # Per bank write bursts
system.mem_ctrls1.perBankWrBursts::4             5986                       # Per bank write bursts
system.mem_ctrls1.perBankWrBursts::5             5908                       # Per bank write bursts
system.mem_ctrls1.perBankWrBursts::6             5357                       # Per bank write bursts
system.mem_ctrls1.perBankWrBursts::7             5572                       # Per bank write bursts
system.mem_ctrls1.perBankWrBursts::8             5530                       # Per bank write bursts
system.mem_ctrls1.perBankWrBursts::9             5682                       # Per bank write bursts
system.mem_ctrls1.perBankWrBursts::10            5864                       # Per bank write bursts
system.mem_ctrls1.perBankWrBursts::11            6335                       # Per bank write bursts
system.mem_ctrls1.perBankWrBursts::12            6055                       # Per bank write bursts
system.mem_ctrls1.perBankWrBursts::13            5655                       # Per bank write bursts
system.mem_ctrls1.perBankWrBursts::14            5398                       # Per bank write bursts
system.mem_ctrls1.perBankWrBursts::15            5680                       # Per bank write bursts
system.mem_ctrls1.numRdRetry                        0                       # Number of times read queue was full causing retry
system.mem_ctrls1.numWrRetry                        0                       # Number of times write queue was full causing retry
system.mem_ctrls1.totGap                 1093753621197                       # Total gap between requests
system.mem_ctrls1.readPktSize::0                    0                       # Read request sizes (log2)
system.mem_ctrls1.readPktSize::1                    0                       # Read request sizes (log2)
system.mem_ctrls1.readPktSize::2                    0                       # Read request sizes (log2)
system.mem_ctrls1.readPktSize::3                    0                       # Read request sizes (log2)
system.mem_ctrls1.readPktSize::4                    0                       # Read request sizes (log2)
system.mem_ctrls1.readPktSize::5                    0                       # Read request sizes (log2)
system.mem_ctrls1.readPktSize::6               150682                       # Read request sizes (log2)
system.mem_ctrls1.writePktSize::0                   0                       # Write request sizes (log2)
system.mem_ctrls1.writePktSize::1                   0                       # Write request sizes (log2)
system.mem_ctrls1.writePktSize::2                   0                       # Write request sizes (log2)
system.mem_ctrls1.writePktSize::3                   0                       # Write request sizes (log2)
system.mem_ctrls1.writePktSize::4                   0                       # Write request sizes (log2)
system.mem_ctrls1.writePktSize::5                   0                       # Write request sizes (log2)
system.mem_ctrls1.writePktSize::6               92903                       # Write request sizes (log2)
system.mem_ctrls1.rdQLenPdf::0                 148713                       # What read queue length does an incoming req see
system.mem_ctrls1.rdQLenPdf::1                   1796                       # What read queue length does an incoming req see
system.mem_ctrls1.rdQLenPdf::2                     51                       # What read queue length does an incoming req see
system.mem_ctrls1.rdQLenPdf::3                      1                       # What read queue length does an incoming req see
system.mem_ctrls1.rdQLenPdf::4                      0                       # What read queue length does an incoming req see
system.mem_ctrls1.rdQLenPdf::5                      0                       # What read queue length does an incoming req see
system.mem_ctrls1.rdQLenPdf::6                      0                       # What read queue length does an incoming req see
system.mem_ctrls1.rdQLenPdf::7                      0                       # What read queue length does an incoming req see
system.mem_ctrls1.rdQLenPdf::8                      0                       # What read queue length does an incoming req see
system.mem_ctrls1.rdQLenPdf::9                      0                       # What read queue length does an incoming req see
system.mem_ctrls1.rdQLenPdf::10                     0                       # What read queue length does an incoming req see
system.mem_ctrls1.rdQLenPdf::11                     0                       # What read queue length does an incoming req see
system.mem_ctrls1.rdQLenPdf::12                     0                       # What read queue length does an incoming req see
system.mem_ctrls1.rdQLenPdf::13                     0                       # What read queue length does an incoming req see
system.mem_ctrls1.rdQLenPdf::14                     0                       # What read queue length does an incoming req see
system.mem_ctrls1.rdQLenPdf::15                     0                       # What read queue length does an incoming req see
system.mem_ctrls1.rdQLenPdf::16                     0                       # What read queue length does an incoming req see
system.mem_ctrls1.rdQLenPdf::17                     0                       # What read queue length does an incoming req see
system.mem_ctrls1.rdQLenPdf::18                     0                       # What read queue length does an incoming req see
system.mem_ctrls1.rdQLenPdf::19                     0                       # What read queue length does an incoming req see
system.mem_ctrls1.rdQLenPdf::20                     0                       # What read queue length does an incoming req see
system.mem_ctrls1.rdQLenPdf::21                     0                       # What read queue length does an incoming req see
system.mem_ctrls1.rdQLenPdf::22                     0                       # What read queue length does an incoming req see
system.mem_ctrls1.rdQLenPdf::23                     0                       # What read queue length does an incoming req see
system.mem_ctrls1.rdQLenPdf::24                     0                       # What read queue length does an incoming req see
system.mem_ctrls1.rdQLenPdf::25                     0                       # What read queue length does an incoming req see
system.mem_ctrls1.rdQLenPdf::26                     0                       # What read queue length does an incoming req see
system.mem_ctrls1.rdQLenPdf::27                     0                       # What read queue length does an incoming req see
system.mem_ctrls1.rdQLenPdf::28                     0                       # What read queue length does an incoming req see
system.mem_ctrls1.rdQLenPdf::29                     0                       # What read queue length does an incoming req see
system.mem_ctrls1.rdQLenPdf::30                     0                       # What read queue length does an incoming req see
system.mem_ctrls1.rdQLenPdf::31                     0                       # What read queue length does an incoming req see
system.mem_ctrls1.wrQLenPdf::0                      2                       # What write queue length does an incoming req see
system.mem_ctrls1.wrQLenPdf::1                      2                       # What write queue length does an incoming req see
system.mem_ctrls1.wrQLenPdf::2                      2                       # What write queue length does an incoming req see
system.mem_ctrls1.wrQLenPdf::3                      2                       # What write queue length does an incoming req see
system.mem_ctrls1.wrQLenPdf::4                      2                       # What write queue length does an incoming req see
system.mem_ctrls1.wrQLenPdf::5                      2                       # What write queue length does an incoming req see
system.mem_ctrls1.wrQLenPdf::6                      2                       # What write queue length does an incoming req see
system.mem_ctrls1.wrQLenPdf::7                      2                       # What write queue length does an incoming req see
system.mem_ctrls1.wrQLenPdf::8                      2                       # What write queue length does an incoming req see
system.mem_ctrls1.wrQLenPdf::9                      2                       # What write queue length does an incoming req see
system.mem_ctrls1.wrQLenPdf::10                     2                       # What write queue length does an incoming req see
system.mem_ctrls1.wrQLenPdf::11                     2                       # What write queue length does an incoming req see
system.mem_ctrls1.wrQLenPdf::12                     2                       # What write queue length does an incoming req see
system.mem_ctrls1.wrQLenPdf::13                     2                       # What write queue length does an incoming req see
system.mem_ctrls1.wrQLenPdf::14                     2                       # What write queue length does an incoming req see
system.mem_ctrls1.wrQLenPdf::15                  4180                       # What write queue length does an incoming req see
system.mem_ctrls1.wrQLenPdf::16                  4251                       # What write queue length does an incoming req see
system.mem_ctrls1.wrQLenPdf::17                  5185                       # What write queue length does an incoming req see
system.mem_ctrls1.wrQLenPdf::18                  5258                       # What write queue length does an incoming req see
system.mem_ctrls1.wrQLenPdf::19                  5280                       # What write queue length does an incoming req see
system.mem_ctrls1.wrQLenPdf::20                  5275                       # What write queue length does an incoming req see
system.mem_ctrls1.wrQLenPdf::21                  5273                       # What write queue length does an incoming req see
system.mem_ctrls1.wrQLenPdf::22                  5280                       # What write queue length does an incoming req see
system.mem_ctrls1.wrQLenPdf::23                  5277                       # What write queue length does an incoming req see
system.mem_ctrls1.wrQLenPdf::24                  5292                       # What write queue length does an incoming req see
system.mem_ctrls1.wrQLenPdf::25                  5282                       # What write queue length does an incoming req see
system.mem_ctrls1.wrQLenPdf::26                  5270                       # What write queue length does an incoming req see
system.mem_ctrls1.wrQLenPdf::27                  5270                       # What write queue length does an incoming req see
system.mem_ctrls1.wrQLenPdf::28                  5286                       # What write queue length does an incoming req see
system.mem_ctrls1.wrQLenPdf::29                  5314                       # What write queue length does an incoming req see
system.mem_ctrls1.wrQLenPdf::30                  5272                       # What write queue length does an incoming req see
system.mem_ctrls1.wrQLenPdf::31                  5249                       # What write queue length does an incoming req see
system.mem_ctrls1.wrQLenPdf::32                  5246                       # What write queue length does an incoming req see
system.mem_ctrls1.wrQLenPdf::33                    96                       # What write queue length does an incoming req see
system.mem_ctrls1.wrQLenPdf::34                    21                       # What write queue length does an incoming req see
system.mem_ctrls1.wrQLenPdf::35                     8                       # What write queue length does an incoming req see
system.mem_ctrls1.wrQLenPdf::36                     3                       # What write queue length does an incoming req see
system.mem_ctrls1.wrQLenPdf::37                     2                       # What write queue length does an incoming req see
system.mem_ctrls1.wrQLenPdf::38                     1                       # What write queue length does an incoming req see
system.mem_ctrls1.wrQLenPdf::39                     1                       # What write queue length does an incoming req see
system.mem_ctrls1.wrQLenPdf::40                     1                       # What write queue length does an incoming req see
system.mem_ctrls1.wrQLenPdf::41                     0                       # What write queue length does an incoming req see
system.mem_ctrls1.wrQLenPdf::42                     0                       # What write queue length does an incoming req see
system.mem_ctrls1.wrQLenPdf::43                     0                       # What write queue length does an incoming req see
system.mem_ctrls1.wrQLenPdf::44                     0                       # What write queue length does an incoming req see
system.mem_ctrls1.wrQLenPdf::45                     0                       # What write queue length does an incoming req see
system.mem_ctrls1.wrQLenPdf::46                     0                       # What write queue length does an incoming req see
system.mem_ctrls1.wrQLenPdf::47                     0                       # What write queue length does an incoming req see
system.mem_ctrls1.wrQLenPdf::48                     0                       # What write queue length does an incoming req see
system.mem_ctrls1.wrQLenPdf::49                     0                       # What write queue length does an incoming req see
system.mem_ctrls1.wrQLenPdf::50                     0                       # What write queue length does an incoming req see
system.mem_ctrls1.wrQLenPdf::51                     0                       # What write queue length does an incoming req see
system.mem_ctrls1.wrQLenPdf::52                     0                       # What write queue length does an incoming req see
system.mem_ctrls1.wrQLenPdf::53                     0                       # What write queue length does an incoming req see
system.mem_ctrls1.wrQLenPdf::54                     0                       # What write queue length does an incoming req see
system.mem_ctrls1.wrQLenPdf::55                     0                       # What write queue length does an incoming req see
system.mem_ctrls1.wrQLenPdf::56                     0                       # What write queue length does an incoming req see
system.mem_ctrls1.wrQLenPdf::57                     0                       # What write queue length does an incoming req see
system.mem_ctrls1.wrQLenPdf::58                     0                       # What write queue length does an incoming req see
system.mem_ctrls1.wrQLenPdf::59                     0                       # What write queue length does an incoming req see
system.mem_ctrls1.wrQLenPdf::60                     0                       # What write queue length does an incoming req see
system.mem_ctrls1.wrQLenPdf::61                     0                       # What write queue length does an incoming req see
system.mem_ctrls1.wrQLenPdf::62                     0                       # What write queue length does an incoming req see
system.mem_ctrls1.wrQLenPdf::63                     0                       # What write queue length does an incoming req see
system.mem_ctrls1.bytesPerActivate::samples       212251                       # Bytes accessed per row activation
system.mem_ctrls1.bytesPerActivate::mean    73.406222                       # Bytes accessed per row activation
system.mem_ctrls1.bytesPerActivate::gmean    68.482875                       # Bytes accessed per row activation
system.mem_ctrls1.bytesPerActivate::stdev    57.936681                       # Bytes accessed per row activation
system.mem_ctrls1.bytesPerActivate::0-127       196624     92.64%     92.64% # Bytes accessed per row activation
system.mem_ctrls1.bytesPerActivate::128-255        13395      6.31%     98.95% # Bytes accessed per row activation
system.mem_ctrls1.bytesPerActivate::256-383          946      0.45%     99.39% # Bytes accessed per row activation
system.mem_ctrls1.bytesPerActivate::384-511          343      0.16%     99.56% # Bytes accessed per row activation
system.mem_ctrls1.bytesPerActivate::512-639          211      0.10%     99.66% # Bytes accessed per row activation
system.mem_ctrls1.bytesPerActivate::640-767          163      0.08%     99.73% # Bytes accessed per row activation
system.mem_ctrls1.bytesPerActivate::768-895          120      0.06%     99.79% # Bytes accessed per row activation
system.mem_ctrls1.bytesPerActivate::896-1023           82      0.04%     99.83% # Bytes accessed per row activation
system.mem_ctrls1.bytesPerActivate::1024-1151          367      0.17%    100.00% # Bytes accessed per row activation
system.mem_ctrls1.bytesPerActivate::total       212251                       # Bytes accessed per row activation
system.mem_ctrls1.rdPerTurnAround::samples         5247                       # Reads before turning the bus around for writes
system.mem_ctrls1.rdPerTurnAround::mean     28.694683                       # Reads before turning the bus around for writes
system.mem_ctrls1.rdPerTurnAround::stdev   357.809976                       # Reads before turning the bus around for writes
system.mem_ctrls1.rdPerTurnAround::0-1023         5246     99.98%     99.98% # Reads before turning the bus around for writes
system.mem_ctrls1.rdPerTurnAround::25600-26623            1      0.02%    100.00% # Reads before turning the bus around for writes
system.mem_ctrls1.rdPerTurnAround::total         5247                       # Reads before turning the bus around for writes
system.mem_ctrls1.wrPerTurnAround::samples         5247                       # Writes before turning the bus around for reads
system.mem_ctrls1.wrPerTurnAround::mean     17.702878                       # Writes before turning the bus around for reads
system.mem_ctrls1.wrPerTurnAround::gmean    17.678045                       # Writes before turning the bus around for reads
system.mem_ctrls1.wrPerTurnAround::stdev     0.928618                       # Writes before turning the bus around for reads
system.mem_ctrls1.wrPerTurnAround::16            1021     19.46%     19.46% # Writes before turning the bus around for reads
system.mem_ctrls1.wrPerTurnAround::17              34      0.65%     20.11% # Writes before turning the bus around for reads
system.mem_ctrls1.wrPerTurnAround::18            3779     72.02%     92.13% # Writes before turning the bus around for reads
system.mem_ctrls1.wrPerTurnAround::19             343      6.54%     98.67% # Writes before turning the bus around for reads
system.mem_ctrls1.wrPerTurnAround::20              53      1.01%     99.68% # Writes before turning the bus around for reads
system.mem_ctrls1.wrPerTurnAround::21               9      0.17%     99.85% # Writes before turning the bus around for reads
system.mem_ctrls1.wrPerTurnAround::22               5      0.10%     99.94% # Writes before turning the bus around for reads
system.mem_ctrls1.wrPerTurnAround::23               1      0.02%     99.96% # Writes before turning the bus around for reads
system.mem_ctrls1.wrPerTurnAround::26               2      0.04%    100.00% # Writes before turning the bus around for reads
system.mem_ctrls1.wrPerTurnAround::total         5247                       # Writes before turning the bus around for reads
system.mem_ctrls1.totQLat                 27345975230                       # Total ticks spent queuing
system.mem_ctrls1.totMemAccLat            30168993980                       # Total ticks spent from burst creation until serviced by the DRAM
system.mem_ctrls1.totBusLat                 752805000                       # Total ticks spent in databus transfers
system.mem_ctrls1.avgQLat                   181627.22                       # Average queueing delay per DRAM burst
system.mem_ctrls1.avgBusLat                   5000.00                       # Average bus latency per DRAM burst
system.mem_ctrls1.avgMemAccLat              200377.22                       # Average memory access latency per DRAM burst
system.mem_ctrls1.avgRdBW                        8.81                       # Average DRAM read bandwidth in MiByte/s
system.mem_ctrls1.avgWrBW                        5.44                       # Average achieved write bandwidth in MiByte/s
system.mem_ctrls1.avgRdBWSys                     8.82                       # Average system read bandwidth in MiByte/s
system.mem_ctrls1.avgWrBWSys                     5.44                       # Average system write bandwidth in MiByte/s
system.mem_ctrls1.peakBW                     12800.00                       # Theoretical peak bandwidth in MiByte/s
system.mem_ctrls1.busUtil                        0.11                       # Data bus utilization in percentage
system.mem_ctrls1.busUtilRead                    0.07                       # Data bus utilization in percentage for reads
system.mem_ctrls1.busUtilWrite                   0.04                       # Data bus utilization in percentage for writes
system.mem_ctrls1.avgRdQLen                      1.00                       # Average read queue length when enqueuing
system.mem_ctrls1.avgWrQLen                     20.88                       # Average write queue length when enqueuing
system.mem_ctrls1.readRowHits                   21341                       # Number of row buffer hits during reads
system.mem_ctrls1.writeRowHits                   9854                       # Number of row buffer hits during writes
system.mem_ctrls1.readRowHitRate                14.17                       # Row buffer hit rate for reads
system.mem_ctrls1.writeRowHitRate               10.61                       # Row buffer hit rate for writes
system.mem_ctrls1.avgGap                   4490233.89                       # Average gap between requests
system.mem_ctrls1.pageHitRate                   12.81                       # Row buffer hit rate, read and write combined
system.mem_ctrls1_0.actEnergy               763658700                       # Energy for activate commands per rank (pJ)
system.mem_ctrls1_0.preEnergy               405886635                       # Energy for precharge commands per rank (pJ)
system.mem_ctrls1_0.readEnergy              540883560                       # Energy for read commands per rank (pJ)
system.mem_ctrls1_0.writeEnergy             243711360                       # Energy for write commands per rank (pJ)
system.mem_ctrls1_0.refreshEnergy        57706091040.000015                       # Energy for refresh commands per rank (pJ)
system.mem_ctrls1_0.actBackEnergy         20091524160                       # Energy for active background per rank (pJ)
system.mem_ctrls1_0.preBackEnergy          3366456480                       # Energy for precharge background per rank (pJ)
system.mem_ctrls1_0.actPowerDownEnergy   114292952640                       # Energy for active power-down per rank (pJ)
system.mem_ctrls1_0.prePowerDownEnergy    96122246400                       # Energy for precharge power-down per rank (pJ)
system.mem_ctrls1_0.selfRefreshEnergy    143098450260                       # Energy for self refresh per rank (pJ)
system.mem_ctrls1_0.totalEnergy          436658946315                       # Total energy per rank (pJ)
system.mem_ctrls1_0.averagePower           399.229656                       # Core power per rank (mW)
system.mem_ctrls1_0.totalIdleTime        1040866259325                       # Total Idle time Per DRAM Rank
system.mem_ctrls1_0.memoryStateTime::IDLE   6736611782                       # Time in different power states
system.mem_ctrls1_0.memoryStateTime::REF  24559568000                       # Time in different power states
system.mem_ctrls1_0.memoryStateTime::SREF 539905492840                       # Time in different power states
system.mem_ctrls1_0.memoryStateTime::PRE_PDN 250318474933                       # Time in different power states
system.mem_ctrls1_0.memoryStateTime::ACT  21591329609                       # Time in different power states
system.mem_ctrls1_0.memoryStateTime::ACT_PDN 250642291552                       # Time in different power states
system.mem_ctrls1_1.actEnergy               751827720                       # Energy for activate commands per rank (pJ)
system.mem_ctrls1_1.preEnergy               399605910                       # Energy for precharge commands per rank (pJ)
system.mem_ctrls1_1.readEnergy              534121980                       # Energy for read commands per rank (pJ)
system.mem_ctrls1_1.writeEnergy             241158780                       # Energy for write commands per rank (pJ)
system.mem_ctrls1_1.refreshEnergy        57329316720.000015                       # Energy for refresh commands per rank (pJ)
system.mem_ctrls1_1.actBackEnergy         19729876260                       # Energy for active background per rank (pJ)
system.mem_ctrls1_1.preBackEnergy          3345779040                       # Energy for precharge background per rank (pJ)
system.mem_ctrls1_1.actPowerDownEnergy   113455171200                       # Energy for active power-down per rank (pJ)
system.mem_ctrls1_1.prePowerDownEnergy    95697522240                       # Energy for precharge power-down per rank (pJ)
system.mem_ctrls1_1.selfRefreshEnergy    143932587795                       # Energy for self refresh per rank (pJ)
system.mem_ctrls1_1.totalEnergy          435442013325                       # Total energy per rank (pJ)
system.mem_ctrls1_1.averagePower           398.117037                       # Core power per rank (mW)
system.mem_ctrls1_1.totalIdleTime        1041715764195                       # Total Idle time Per DRAM Rank
system.mem_ctrls1_1.memoryStateTime::IDLE   6692657778                       # Time in different power states
system.mem_ctrls1_1.memoryStateTime::REF  24399480000                       # Time in different power states
system.mem_ctrls1_1.memoryStateTime::SREF 543700282046                       # Time in different power states
system.mem_ctrls1_1.memoryStateTime::PRE_PDN 249212242828                       # Time in different power states
system.mem_ctrls1_1.memoryStateTime::ACT  20943974573                       # Time in different power states
system.mem_ctrls1_1.memoryStateTime::ACT_PDN 248805131491                       # Time in different power states
system.pwrStateResidencyTicks::UNDEFINED 18747095159646                       # Cumulative time (in ticks) in various power states
system.cpu.branchPred.lookups                       3                       # Number of BP lookups
system.cpu.branchPred.condPredicted                 1                       # Number of conditional branches predicted
system.cpu.branchPred.condIncorrect                 1                       # Number of conditional branches incorrect
system.cpu.branchPred.BTBLookups                    2                       # Number of BTB lookups
system.cpu.branchPred.BTBHits                       0                       # Number of BTB hits
system.cpu.branchPred.BTBCorrect                    0                       # Number of correct BTB predictions (this stat may not work properly.
system.cpu.branchPred.BTBHitPct              0.000000                       # BTB Hit Percentage
system.cpu.branchPred.usedRAS                       0                       # Number of times the RAS was used to get a target.
system.cpu.branchPred.RASInCorrect                  0                       # Number of incorrect RAS predictions.
system.cpu.branchPred.indirectLookups               0                       # Number of indirect predictor lookups.
system.cpu.branchPred.indirectHits                  0                       # Number of indirect target hits.
system.cpu.branchPred.indirectMisses                0                       # Number of indirect misses.
system.cpu.branchPredindirectMispredicted            0                       # Number of mispredicted indirect branches.
system.cpu_voltage_domain.voltage                   1                       # Voltage in Volts
system.cpu_clk_domain.clock                       333                       # Clock period in ticks
system.cpu.dtb.fetch_hits                           0                       # ITB hits
system.cpu.dtb.fetch_misses                         0                       # ITB misses
system.cpu.dtb.fetch_acv                            0                       # ITB acv
system.cpu.dtb.fetch_accesses                       0                       # ITB accesses
system.cpu.dtb.read_hits                            3                       # DTB read hits
system.cpu.dtb.read_misses                          0                       # DTB read misses
system.cpu.dtb.read_acv                             0                       # DTB read access violations
system.cpu.dtb.read_accesses                        3                       # DTB read accesses
system.cpu.dtb.write_hits                          11                       # DTB write hits
system.cpu.dtb.write_misses                         0                       # DTB write misses
system.cpu.dtb.write_acv                            0                       # DTB write access violations
system.cpu.dtb.write_accesses                      11                       # DTB write accesses
system.cpu.dtb.data_hits                           14                       # DTB hits
system.cpu.dtb.data_misses                          0                       # DTB misses
system.cpu.dtb.data_acv                             0                       # DTB access violations
system.cpu.dtb.data_accesses                       14                       # DTB accesses
system.cpu.itb.fetch_hits                           6                       # ITB hits
system.cpu.itb.fetch_misses                         0                       # ITB misses
system.cpu.itb.fetch_acv                            0                       # ITB acv
system.cpu.itb.fetch_accesses                       6                       # ITB accesses
system.cpu.itb.read_hits                            0                       # DTB read hits
system.cpu.itb.read_misses                          0                       # DTB read misses
system.cpu.itb.read_acv                             0                       # DTB read access violations
system.cpu.itb.read_accesses                        0                       # DTB read accesses
system.cpu.itb.write_hits                           0                       # DTB write hits
system.cpu.itb.write_misses                         0                       # DTB write misses
system.cpu.itb.write_acv                            0                       # DTB write access violations
system.cpu.itb.write_accesses                       0                       # DTB write accesses
system.cpu.itb.data_hits                            0                       # DTB hits
system.cpu.itb.data_misses                          0                       # DTB misses
system.cpu.itb.data_acv                             0                       # DTB access violations
system.cpu.itb.data_accesses                        0                       # DTB accesses
system.cpu.workload.num_syscalls                    0                       # Number of system calls
system.cpu.pwrStateResidencyTicks::ON    1093753768716                       # Cumulative time (in ticks) in various power states
system.cpu.numCycles                              884                       # number of cpu cycles simulated
system.cpu.numWorkItemsStarted                      0                       # number of work items this cpu started
system.cpu.numWorkItemsCompleted                    0                       # number of work items this cpu completed
system.cpu.fetch.icacheStallCycles                 63                       # Number of cycles fetch is stalled on an Icache miss
system.cpu.fetch.Insts                             31                       # Number of instructions fetch has processed
system.cpu.fetch.Branches                           3                       # Number of branches that fetch encountered
system.cpu.fetch.Cycles                             5                       # Number of cycles fetch has run and was not squashing or blocked
system.cpu.fetch.SquashCycles                       5                       # Number of cycles fetch has spent squashing
system.cpu.fetch.PendingDrainCycles                 8                       # Number of cycles fetch has spent waiting on pipes to drain
system.cpu.fetch.CacheLines                         6                       # Number of cache lines fetched
system.cpu.fetch.IcacheSquashes                     3                       # Number of outstanding Icache misses that were squashed
system.cpu.fetch.rateDist::samples                 78                       # Number of instructions fetched each cycle (Total)
system.cpu.fetch.rateDist::mean              0.397436                       # Number of instructions fetched each cycle (Total)
system.cpu.fetch.rateDist::stdev             1.646245                       # Number of instructions fetched each cycle (Total)
system.cpu.fetch.rateDist::underflows               0      0.00%      0.00% # Number of instructions fetched each cycle (Total)
system.cpu.fetch.rateDist::0                       73     93.59%     93.59% # Number of instructions fetched each cycle (Total)
system.cpu.fetch.rateDist::1                        0      0.00%     93.59% # Number of instructions fetched each cycle (Total)
system.cpu.fetch.rateDist::2                        1      1.28%     94.87% # Number of instructions fetched each cycle (Total)
system.cpu.fetch.rateDist::3                        0      0.00%     94.87% # Number of instructions fetched each cycle (Total)
system.cpu.fetch.rateDist::4                        0      0.00%     94.87% # Number of instructions fetched each cycle (Total)
system.cpu.fetch.rateDist::5                        1      1.28%     96.15% # Number of instructions fetched each cycle (Total)
system.cpu.fetch.rateDist::6                        0      0.00%     96.15% # Number of instructions fetched each cycle (Total)
[...]
system.switch_cpus_1.iq.int_inst_queue_writes    350652258                       # Number of integer instruction queue writes
system.switch_cpus_1.iq.int_inst_queue_wakeup_accesses    240902883                       # Number of integer instruction queue wakeup accesses
system.switch_cpus_1.iq.fp_inst_queue_reads      4183272                       # Number of floating instruction queue reads
system.switch_cpus_1.iq.fp_inst_queue_writes      2880886                       # Number of floating instruction queue writes
system.switch_cpus_1.iq.fp_inst_queue_wakeup_accesses      1991166                       # Number of floating instruction queue wakeup accesses
system.switch_cpus_1.iq.int_alu_accesses    258514326                       # Number of integer alu accesses
system.switch_cpus_1.iq.fp_alu_accesses       2118025                       # Number of floating point alu accesses
system.switch_cpus_1.iew.lsq.thread0.forwLoads      2612705                       # Number of loads that had data forwarded from stores
system.switch_cpus_1.iew.lsq.thread0.invAddrLoads            0                       # Number of loads ignored due to an invalid address
system.switch_cpus_1.iew.lsq.thread0.squashedLoads     18021494                       # Number of loads squashed
system.switch_cpus_1.iew.lsq.thread0.ignoredResponses        31358                       # Number of memory responses ignored because the instruction is squashed
system.switch_cpus_1.iew.lsq.thread0.memOrderViolation        34097                       # Number of memory ordering violations
system.switch_cpus_1.iew.lsq.thread0.squashedStores      5656397                       # Number of stores squashed
system.switch_cpus_1.iew.lsq.thread0.invAddrSwpfs            0                       # Number of software prefetches ignored due to an invalid address
system.switch_cpus_1.iew.lsq.thread0.blockedLoads            0                       # Number of blocked loads due to partial load-store forwarding
system.switch_cpus_1.iew.lsq.thread0.rescheduledLoads         9537                       # Number of loads that were rescheduled
system.switch_cpus_1.iew.lsq.thread0.cacheBlocked      1533129                       # Number of times an access to memory failed due to the cache being blocked
system.switch_cpus_1.iew.iewIdleCycles              0                       # Number of cycles IEW is idle
system.switch_cpus_1.iew.iewSquashCycles      3775281                       # Number of cycles IEW is squashing
system.switch_cpus_1.iew.iewBlockCycles      10094156                       # Number of cycles IEW is blocking
system.switch_cpus_1.iew.iewUnblockCycles      1698821                       # Number of cycles IEW is unblocking
system.switch_cpus_1.iew.iewDispatchedInsts    283589483                       # Number of instructions dispatched to IQ
system.switch_cpus_1.iew.iewDispSquashedInsts      1389777                       # Number of squashed instructions skipped by dispatch
system.switch_cpus_1.iew.iewDispLoadInsts     62143248                       # Number of dispatched load instructions
system.switch_cpus_1.iew.iewDispStoreInsts     27956242                       # Number of dispatched store instructions
system.switch_cpus_1.iew.iewDispNonSpecInsts          177                       # Number of dispatched non-speculative instructions
system.switch_cpus_1.iew.iewIQFullEvents        23637                       # Number of times the IQ has become full, causing a stall
system.switch_cpus_1.iew.iewLSQFullEvents      1630701                       # Number of times the LSQ has become full, causing a stall
system.switch_cpus_1.iew.memOrderViolationEvents        34097                       # Number of memory order violations
system.switch_cpus_1.iew.predictedTakenIncorrect      2204161                       # Number of branches that were predicted taken incorrectly
system.switch_cpus_1.iew.predictedNotTakenIncorrect      1990904                       # Number of branches that were predicted not taken incorrectly
system.switch_cpus_1.iew.branchMispredicts      4195065                       # Number of branch mispredicts detected at execute
system.switch_cpus_1.iew.iewExecutedInsts    249021368                       # Number of executed instructions
system.switch_cpus_1.iew.iewExecLoadInsts     57914924                       # Number of load instructions executed
system.switch_cpus_1.iew.iewExecSquashedInsts      6223090                       # Number of squashed instructions skipped in execute
system.switch_cpus_1.iew.exec_swp                   0                       # number of swp insts executed
system.switch_cpus_1.iew.exec_nop             6838587                       # number of nop insts executed
system.switch_cpus_1.iew.exec_refs           83129140                       # number of memory reference insts executed
system.switch_cpus_1.iew.exec_branches       36326769                       # Number of branches executed
system.switch_cpus_1.iew.exec_stores         25214216                       # Number of stores executed
system.switch_cpus_1.iew.exec_rate           1.489697                       # Inst execution rate
system.switch_cpus_1.iew.wb_sent            244532799                       # cumulative count of insts sent to commit
system.switch_cpus_1.iew.wb_count           242894049                       # cumulative count of insts written-back
system.switch_cpus_1.iew.wb_producers       136956331                       # num instructions producing a value
system.switch_cpus_1.iew.wb_consumers       173316192                       # num instructions consuming a value
system.switch_cpus_1.iew.wb_rate             1.453042                       # insts written-back per cycle
system.switch_cpus_1.iew.wb_fanout           0.790211                       # average fanout of values written-back
system.switch_cpus_1.commit.commitSquashedInsts     77256075                       # The number of squashed insts skipped by commit
system.switch_cpus_1.commit.commitNonSpecStalls          176                       # The number of times commit has been forced to stall to communicate backwards
system.switch_cpus_1.commit.branchMispredicts      3682342                       # The number of times a branch was mispredicted
system.switch_cpus_1.commit.committed_per_cycle::samples    150001750                       # Number of insts commited each cycle
system.switch_cpus_1.commit.committed_per_cycle::mean     1.369005                       # Number of insts commited each cycle
system.switch_cpus_1.commit.committed_per_cycle::stdev     2.403002                       # Number of insts commited each cycle
system.switch_cpus_1.commit.committed_per_cycle::underflows            0      0.00%      0.00% # Number of insts commited each cycle
system.switch_cpus_1.commit.committed_per_cycle::0     88810477     59.21%     59.21% # Number of insts commited each cycle
system.switch_cpus_1.commit.committed_per_cycle::1     25356826     16.90%     76.11% # Number of insts commited each cycle
system.switch_cpus_1.commit.committed_per_cycle::2      8743165      5.83%     81.94% # Number of insts commited each cycle
system.switch_cpus_1.commit.committed_per_cycle::3      5226664      3.48%     85.42% # Number of insts commited each cycle
system.switch_cpus_1.commit.committed_per_cycle::4      3411185      2.27%     87.70% # Number of insts commited each cycle
system.switch_cpus_1.commit.committed_per_cycle::5      2726218      1.82%     89.52% # Number of insts commited each cycle
system.switch_cpus_1.commit.committed_per_cycle::6      2305414      1.54%     91.05% # Number of insts commited each cycle
system.switch_cpus_1.commit.committed_per_cycle::7      1652763      1.10%     92.15% # Number of insts commited each cycle
system.switch_cpus_1.commit.committed_per_cycle::8     11769038      7.85%    100.00% # Number of insts commited each cycle
system.switch_cpus_1.commit.committed_per_cycle::overflows            0      0.00%    100.00% # Number of insts commited each cycle
system.switch_cpus_1.commit.committed_per_cycle::min_value            0                       # Number of insts commited each cycle
system.switch_cpus_1.commit.committed_per_cycle::max_value            8                       # Number of insts commited each cycle
system.switch_cpus_1.commit.committed_per_cycle::total    150001750                       # Number of insts commited each cycle
system.switch_cpus_1.commit.committedInsts    205353107                       # Number of instructions committed
system.switch_cpus_1.commit.committedOps    205353107                       # Number of ops (including micro ops) committed
system.switch_cpus_1.commit.swp_count               0                       # Number of s/w prefetches committed
system.switch_cpus_1.commit.refs             66421579                       # Number of memory references committed
system.switch_cpus_1.commit.loads            44121734                       # Number of loads committed
system.switch_cpus_1.commit.membars                88                       # Number of memory barriers committed
system.switch_cpus_1.commit.branches         30359423                       # Number of branches committed
system.switch_cpus_1.commit.fp_insts          1786208                       # Number of committed floating point instructions.
system.switch_cpus_1.commit.int_insts       197426184                       # Number of committed integer instructions.
system.switch_cpus_1.commit.function_calls      1752736                       # Number of function calls committed.
system.switch_cpus_1.commit.op_class_0::No_OpClass      5447375      2.65%      2.65% # Class of committed instruction
system.switch_cpus_1.commit.op_class_0::IntAlu    132113930     64.34%     66.99% # Class of committed instruction
system.switch_cpus_1.commit.op_class_0::IntMult        79596      0.04%     67.03% # Class of committed instruction
system.switch_cpus_1.commit.op_class_0::IntDiv            0      0.00%     67.03% # Class of committed instruction
system.switch_cpus_1.commit.op_class_0::FloatAdd       635244      0.31%     67.34% # Class of committed instruction
system.switch_cpus_1.commit.op_class_0::FloatCmp       335099      0.16%     67.50% # Class of committed instruction
system.switch_cpus_1.commit.op_class_0::FloatCvt       272825      0.13%     67.63% # Class of committed instruction
system.switch_cpus_1.commit.op_class_0::FloatMult            0      0.00%     67.63% # Class of committed instruction
system.switch_cpus_1.commit.op_class_0::FloatMultAcc            0      0.00%     67.63% # Class of committed instruction
system.switch_cpus_1.commit.op_class_0::FloatDiv        47371      0.02%     67.65% # Class of committed instruction
system.switch_cpus_1.commit.op_class_0::FloatMisc            0      0.00%     67.65% # Class of committed instruction
system.switch_cpus_1.commit.op_class_0::FloatSqrt            0      0.00%     67.65% # Class of committed instruction
system.switch_cpus_1.commit.op_class_0::SimdAdd            0      0.00%     67.65% # Class of committed instruction
system.switch_cpus_1.commit.op_class_0::SimdAddAcc            0      0.00%     67.65% # Class of committed instruction
system.switch_cpus_1.commit.op_class_0::SimdAlu            0      0.00%     67.65% # Class of committed instruction
system.switch_cpus_1.commit.op_class_0::SimdCmp            0      0.00%     67.65% # Class of committed instruction
system.switch_cpus_1.commit.op_class_0::SimdCvt            0      0.00%     67.65% # Class of committed instruction
system.switch_cpus_1.commit.op_class_0::SimdMisc            0      0.00%     67.65% # Class of committed instruction
system.switch_cpus_1.commit.op_class_0::SimdMult            0      0.00%     67.65% # Class of committed instruction
system.switch_cpus_1.commit.op_class_0::SimdMultAcc            0      0.00%     67.65% # Class of committed instruction
system.switch_cpus_1.commit.op_class_0::SimdShift            0      0.00%     67.65% # Class of committed instruction
system.switch_cpus_1.commit.op_class_0::SimdShiftAcc            0      0.00%     67.65% # Class of committed instruction
system.switch_cpus_1.commit.op_class_0::SimdSqrt            0      0.00%     67.65% # Class of committed instruction
system.switch_cpus_1.commit.op_class_0::SimdFloatAdd            0      0.00%     67.65% # Class of committed instruction
system.switch_cpus_1.commit.op_class_0::SimdFloatAlu            0      0.00%     67.65% # Class of committed instruction
system.switch_cpus_1.commit.op_class_0::SimdFloatCmp            0      0.00%     67.65% # Class of committed instruction
system.switch_cpus_1.commit.op_class_0::SimdFloatCvt            0      0.00%     67.65% # Class of committed instruction
system.switch_cpus_1.commit.op_class_0::SimdFloatDiv            0      0.00%     67.65% # Class of committed instruction
system.switch_cpus_1.commit.op_class_0::SimdFloatMisc            0      0.00%     67.65% # Class of committed instruction
system.switch_cpus_1.commit.op_class_0::SimdFloatMult            0      0.00%     67.65% # Class of committed instruction
system.switch_cpus_1.commit.op_class_0::SimdFloatMultAcc            0      0.00%     67.65% # Class of committed instruction
system.switch_cpus_1.commit.op_class_0::SimdFloatSqrt            0      0.00%     67.65% # Class of committed instruction
system.switch_cpus_1.commit.op_class_0::MemRead     43815278     21.34%     88.99% # Class of committed instruction
system.switch_cpus_1.commit.op_class_0::MemWrite     22110720     10.77%     99.76% # Class of committed instruction
system.switch_cpus_1.commit.op_class_0::FloatMemRead       306544      0.15%     99.91% # Class of committed instruction
system.switch_cpus_1.commit.op_class_0::FloatMemWrite       189125      0.09%    100.00% # Class of committed instruction
system.switch_cpus_1.commit.op_class_0::IprAccess            0      0.00%    100.00% # Class of committed instruction
system.switch_cpus_1.commit.op_class_0::InstPrefetch            0      0.00%    100.00% # Class of committed instruction
system.switch_cpus_1.commit.op_class_0::total    205353107                       # Class of committed instruction
system.switch_cpus_1.commit.bw_lim_events     11769038                       # number cycles where commit BW limit reached
system.switch_cpus_1.rob.rob_reads          419951407                       # The number of ROB reads
system.switch_cpus_1.rob.rob_writes         577171814                       # The number of ROB writes
system.switch_cpus_1.timesIdled                835879                       # Number of times that the entire CPU went into an idle state and unscheduled itself
system.switch_cpus_1.idleCycles               5292333                       # Total number of cycles that the CPU has spent unscheduled due to idling
system.switch_cpus_1.committedInsts         200000006                       # Number of Instructions Simulated
system.switch_cpus_1.committedOps           200000006                       # Number of Ops (including micro ops) Simulated
system.switch_cpus_1.cpi                     0.835812                       # CPI: Cycles Per Instruction
system.switch_cpus_1.cpi_total               0.835812                       # CPI: Total CPI of All Threads
system.switch_cpus_1.ipc                     1.196441                       # IPC: Instructions Per Cycle
system.switch_cpus_1.ipc_total               1.196441                       # IPC: Total IPC of All Threads
system.switch_cpus_1.int_regfile_reads      334050145                       # number of integer regfile reads
system.switch_cpus_1.int_regfile_writes     183362260                       # number of integer regfile writes
system.switch_cpus_1.fp_regfile_reads         2121867                       # number of floating regfile reads
system.switch_cpus_1.fp_regfile_writes        1274249                       # number of floating regfile writes
system.switch_cpus_1.misc_regfile_reads         94472                       # number of misc regfile reads
system.switch_cpus_1.misc_regfile_writes        47313                       # number of misc regfile writes
system.tol3bus.snoop_filter.tot_requests      2928768                       # Total number of requests made to the snoop filter.
system.tol3bus.snoop_filter.hit_single_requests      1462346                       # Number of requests hitting in the snoop filter with a single holder of the requested data.
system.tol3bus.snoop_filter.hit_multi_requests            0                       # Number of requests hitting in the snoop filter with multiple (>1) holders of the requested data.
system.tol3bus.snoop_filter.tot_snoops           1415                       # Total number of snoops made to the snoop filter.
system.tol3bus.snoop_filter.hit_single_snoops         1415                       # Number of snoops hitting in the snoop filter with a single holder of the requested data.
system.tol3bus.snoop_filter.hit_multi_snoops            0                       # Number of snoops hitting in the snoop filter with multiple (>1) holders of the requested data.
system.tol3bus.pwrStateResidencyTicks::UNDEFINED 18747095159646                       # Cumulative time (in ticks) in various power states
system.tol3bus.trans_dist::ReadResp           1040585                       # Transaction distribution
system.tol3bus.trans_dist::WritebackDirty      1014170                       # Transaction distribution
system.tol3bus.trans_dist::CleanEvict          683656                       # Transaction distribution
system.tol3bus.trans_dist::ReadExReq           425837                       # Transaction distribution
system.tol3bus.trans_dist::ReadExResp          425837                       # Transaction distribution
system.tol3bus.trans_dist::ReadSharedReq      1040585                       # Transaction distribution
system.tol3bus.pkt_count_system.cpu.l2.mem_side::system.l3.cpu_side      4395190                       # Packet count per connected master and slave (bytes)
system.tol3bus.pkt_size_system.cpu.l2.mem_side::system.l3.cpu_side    146879104                       # Cumulative packet size per connected master and slave (bytes)
system.tol3bus.snoops                          235480                       # Total snoops (count)
system.tol3bus.snoopTraffic                  11878784                       # Total snoop traffic (bytes)
system.tol3bus.snoop_fanout::samples          1701902                       # Request fanout histogram
system.tol3bus.snoop_fanout::mean            0.000831                       # Request fanout histogram
system.tol3bus.snoop_fanout::stdev           0.028822                       # Request fanout histogram
system.tol3bus.snoop_fanout::underflows             0      0.00%      0.00% # Request fanout histogram
system.tol3bus.snoop_fanout::0                1700487     99.92%     99.92% # Request fanout histogram
system.tol3bus.snoop_fanout::1                   1415      0.08%    100.00% # Request fanout histogram
system.tol3bus.snoop_fanout::overflows              0      0.00%    100.00% # Request fanout histogram
system.tol3bus.snoop_fanout::min_value              0                       # Request fanout histogram
system.tol3bus.snoop_fanout::max_value              1                       # Request fanout histogram
system.tol3bus.snoop_fanout::total            1701902                       # Request fanout histogram
system.tol3bus.reqLayer0.occupancy         1251191556                       # Layer occupancy (ticks)
system.tol3bus.reqLayer0.utilization              0.1                       # Layer utilization (%)
system.tol3bus.respLayer0.occupancy         976637052                       # Layer occupancy (ticks)
system.tol3bus.respLayer0.utilization             0.1                       # Layer utilization (%)

---------- End Simulation Statistics   ----------
