
---------- Begin Simulation Statistics ----------
sim_seconds                                  1.115039                       # Number of seconds simulated
sim_ticks                                1115039470041                       # Number of ticks simulated
final_tick                               18768380860971                       # Number of ticks from beginning of simulation (restored from checkpoints and never reset)
sim_freq                                 1000000000000                       # Frequency of simulated ticks
host_inst_rate                                 480730                       # Simulator instruction rate (inst/s)
host_op_rate                                   480730                       # Simulator op (including micro ops) rate (op/s)
host_tick_rate                              446694381                       # Simulator tick rate (ticks/s)
host_mem_usage                                2396276                       # Number of bytes of host memory used
host_seconds                                  2496.20                       # Real time elapsed on the host
sim_insts                                  1200000011                       # Number of instructions simulated
sim_ops                                    1200000011                       # Number of ops (including micro ops) simulated
system.voltage_domain.voltage                       1                       # Voltage in Volts
system.clk_domain.clock                          1000                       # Clock period in ticks
system.mem_ctrls0.pwrStateResidencyTicks::UNDEFINED 18768380860971                       # Cumulative time (in ticks) in various power states
system.mem_ctrls0.bytes_read::cpu.inst            192                       # Number of bytes read from this memory
system.mem_ctrls0.bytes_read::switch_cpus.inst       116096                       # Number of bytes read from this memory
system.mem_ctrls0.bytes_read::switch_cpus.data      8056896                       # Number of bytes read from this memory
system.mem_ctrls0.bytes_read::switch_cpus_1.inst        14016                       # Number of bytes read from this memory
system.mem_ctrls0.bytes_read::switch_cpus_1.data      1366848                       # Number of bytes read from this memory
system.mem_ctrls0.bytes_read::total           9554048                       # Number of bytes read from this memory
system.mem_ctrls0.bytes_inst_read::cpu.inst          192                       # Number of instructions bytes read from this memory
system.mem_ctrls0.bytes_inst_read::switch_cpus.inst       116096                       # Number of instructions bytes read from this memory
system.mem_ctrls0.bytes_inst_read::switch_cpus_1.inst        14016                       # Number of instructions bytes read from this memory
system.mem_ctrls0.bytes_inst_read::total       130304                       # Number of instructions bytes read from this memory
system.mem_ctrls0.bytes_written::writebacks      5933504                       # Number of bytes written to this memory
system.mem_ctrls0.bytes_written::total        5933504                       # Number of bytes written to this memory
system.mem_ctrls0.num_reads::cpu.inst               3                       # Number of read requests responded to by this memory
system.mem_ctrls0.num_reads::switch_cpus.inst         1814                       # Number of read requests responded to by this memory
system.mem_ctrls0.num_reads::switch_cpus.data       125889                       # Number of read requests responded to by this memory
system.mem_ctrls0.num_reads::switch_cpus_1.inst          219                       # Number of read requests responded to by this memory
system.mem_ctrls0.num_reads::switch_cpus_1.data        21357                       # Number of read requests responded to by this memory
system.mem_ctrls0.num_reads::total             149282                       # Number of read requests responded to by this memory
system.mem_ctrls0.num_writes::writebacks        92711                       # Number of write requests responded to by this memory
system.mem_ctrls0.num_writes::total             92711                       # Number of write requests responded to by this memory
system.mem_ctrls0.bw_read::cpu.inst               172                       # Total read bandwidth from this memory (bytes/s)
system.mem_ctrls0.bw_read::switch_cpus.inst       104118                       # Total read bandwidth from this memory (bytes/s)
system.mem_ctrls0.bw_read::switch_cpus.data      7225660                       # Total read bandwidth from this memory (bytes/s)
system.mem_ctrls0.bw_read::switch_cpus_1.inst        12570                       # Total read bandwidth from this memory (bytes/s)
system.mem_ctrls0.bw_read::switch_cpus_1.data      1225829                       # Total read bandwidth from this memory (bytes/s)
system.mem_ctrls0.bw_read::total              8568350                       # Total read bandwidth from this memory (bytes/s)
system.mem_ctrls0.bw_inst_read::cpu.inst          172                       # Instruction read bandwidth from this memory (bytes/s)
system.mem_ctrls0.bw_inst_read::switch_cpus.inst       104118                       # Instruction read bandwidth from this memory (bytes/s)
system.mem_ctrls0.bw_inst_read::switch_cpus_1.inst        12570                       # Instruction read bandwidth from this memory (bytes/s)
system.mem_ctrls0.bw_inst_read::total          116860                       # Instruction read bandwidth from this memory (bytes/s)
system.mem_ctrls0.bw_write::writebacks        5321340                       # Write bandwidth from this memory (bytes/s)
system.mem_ctrls0.bw_write::total             5321340                       # Write bandwidth from this memory (bytes/s)
system.mem_ctrls0.bw_total::writebacks        5321340                       # Total bandwidth to/from this memory (bytes/s)
system.mem_ctrls0.bw_total::cpu.inst              172                       # Total bandwidth to/from this memory (bytes/s)
system.mem_ctrls0.bw_total::switch_cpus.inst       104118                       # Total bandwidth to/from this memory (bytes/s)
system.mem_ctrls0.bw_total::switch_cpus.data      7225660                       # Total bandwidth to/from this memory (bytes/s)
system.mem_ctrls0.bw_total::switch_cpus_1.inst        12570                       # Total bandwidth to/from this memory (bytes/s)
system.mem_ctrls0.bw_total::switch_cpus_1.data      1225829                       # Total bandwidth to/from this memory (bytes/s)
system.mem_ctrls0.bw_total::total            13889689                       # Total bandwidth to/from this memory (bytes/s)
system.mem_ctrls0.readReqs                     149282                       # Number of read requests accepted
system.mem_ctrls0.writeReqs                     92711                       # Number of write requests accepted
system.mem_ctrls0.readBursts                   149282                       # Number of DRAM read bursts, including those serviced by the write queue
system.mem_ctrls0.writeBursts                   92711                       # Number of DRAM write bursts, including those merged in the write queue
system.mem_ctrls0.bytesReadDRAM               9549376                       # Total number of bytes read from DRAM
system.mem_ctrls0.bytesReadWrQ                   4672                       # Total number of bytes read from write queue
system.mem_ctrls0.bytesWritten                5931904                       # Total number of bytes written to DRAM
system.mem_ctrls0.bytesReadSys                9554048                       # Total read bytes from the system interface side
system.mem_ctrls0.bytesWrittenSys             5933504                       # Total written bytes from the system interface side
system.mem_ctrls0.servicedByWrQ                    73                       # Number of DRAM read bursts serviced by the write queue
system.mem_ctrls0.mergedWrBursts                    0                       # Number of DRAM write bursts merged with an existing one
system.mem_ctrls0.neitherReadNorWriteReqs            0                       # Number of requests that are neither read nor write
system.mem_ctrls0.perBankRdBursts::0             9050                       # Per bank write bursts
system.mem_ctrls0.perBankRdBursts::1             9347                       # Per bank write bursts
system.mem_ctrls0.perBankRdBursts::2             9351                       # Per bank write bursts
system.mem_ctrls0.perBankRdBursts::3             9911                       # Per bank write bursts
system.mem_ctrls0.perBankRdBursts::4             9892                       # Per bank write bursts
system.mem_ctrls0.perBankRdBursts::5             9437                       # Per bank write bursts
system.mem_ctrls0.perBankRdBursts::6             8866                       # Per bank write bursts
system.mem_ctrls0.perBankRdBursts::7             8978                       # Per bank write bursts
system.mem_ctrls0.perBankRdBursts::8             9544                       # Per bank write bursts
system.mem_ctrls0.perBankRdBursts::9             9777                       # Per bank write bursts
system.mem_ctrls0.perBankRdBursts::10            9167                       # Per bank write bursts
system.mem_ctrls0.perBankRdBursts::11            9527                       # Per bank write bursts
system.mem_ctrls0.perBankRdBursts::12            9292                       # Per bank write bursts
system.mem_ctrls0.perBankRdBursts::13            9206                       # Per bank write bursts
system.mem_ctrls0.perBankRdBursts::14            9030                       # Per bank write bursts
system.mem_ctrls0.perBankRdBursts::15            8834                       # Per bank write bursts
system.mem_ctrls0.perBankWrBursts::0             5909                       # Per bank write bursts
system.mem_ctrls0.perBankWrBursts::1             6091                       # Per bank write bursts
system.mem_ctrls0.perBankWrBursts::2             5904                       # Per bank write bursts
system.mem_ctrls0.perBankWrBursts::3             6191                       # Per bank write bursts
system.mem_ctrls0.perBankWrBursts::4             6096                       # Per bank write bursts
system.mem_ctrls0.perBankWrBursts::5             5748                       # Per bank write bursts
system.mem_ctrls0.perBankWrBursts::6             5414                       # Per bank write bursts
system.mem_ctrls0.perBankWrBursts::7             5402                       # Per bank write bursts
system.mem_ctrls0.perBankWrBursts::8             5526                       # Per bank write bursts
system.mem_ctrls0.perBankWrBursts::9             5651                       # Per bank write bursts
system.mem_ctrls0.perBankWrBursts::10            5812                       # Per bank write bursts
system.mem_ctrls0.perBankWrBursts::11            6231                       # Per bank write bursts
system.mem_ctrls0.perBankWrBursts::12            5905                       # Per bank write bursts
system.mem_ctrls0.perBankWrBursts::13            5711                       # Per bank write bursts
system.mem_ctrls0.perBankWrBursts::14            5506                       # Per bank write bursts
system.mem_ctrls0.perBankWrBursts::15            5589                       # Per bank write bursts
system.mem_ctrls0.numRdRetry                        0                       # Number of times read queue was full causing retry
system.mem_ctrls0.numWrRetry                        0                       # Number of times write queue was full causing retry
system.mem_ctrls0.totGap                 1115039412432                       # Total gap between requests
system.mem_ctrls0.readPktSize::0                    0                       # Read request sizes (log2)
system.mem_ctrls0.readPktSize::1                    0                       # Read request sizes (log2)
system.mem_ctrls0.readPktSize::2                    0                       # Read request sizes (log2)
system.mem_ctrls0.readPktSize::3                    0                       # Read request sizes (log2)
system.mem_ctrls0.readPktSize::4                    0                       # Read request sizes (log2)
system.mem_ctrls0.readPktSize::5                    0                       # Read request sizes (log2)
system.mem_ctrls0.readPktSize::6               149282                       # Read request sizes (log2)
system.mem_ctrls0.writePktSize::0                   0                       # Write request sizes (log2)
system.mem_ctrls0.writePktSize::1                   0                       # Write request sizes (log2)
system.mem_ctrls0.writePktSize::2                   0                       # Write request sizes (log2)
system.mem_ctrls0.writePktSize::3                   0                       # Write request sizes (log2)
system.mem_ctrls0.writePktSize::4                   0                       # Write request sizes (log2)
system.mem_ctrls0.writePktSize::5                   0                       # Write request sizes (log2)
system.mem_ctrls0.writePktSize::6               92711                       # Write request sizes (log2)
system.mem_ctrls0.rdQLenPdf::0                 147534                       # What read queue length does an incoming req see
system.mem_ctrls0.rdQLenPdf::1                   1634                       # What read queue length does an incoming req see
system.mem_ctrls0.rdQLenPdf::2                     41                       # What read queue length does an incoming req see
system.mem_ctrls0.rdQLenPdf::3                      0                       # What read queue length does an incoming req see
system.mem_ctrls0.rdQLenPdf::4                      0                       # What read queue length does an incoming req see
system.mem_ctrls0.rdQLenPdf::5                      0                       # What read queue length does an incoming req see
system.mem_ctrls0.rdQLenPdf::6                      0                       # What read queue length does an incoming req see
system.mem_ctrls0.rdQLenPdf::7                      0                       # What read queue length does an incoming req see
system.mem_ctrls0.rdQLenPdf::8                      0                       # What read queue length does an incoming req see
system.mem_ctrls0.rdQLenPdf::9                      0                       # What read queue length does an incoming req see
system.mem_ctrls0.rdQLenPdf::10                     0                       # What read queue length does an incoming req see
system.mem_ctrls0.rdQLenPdf::11                     0                       # What read queue length does an incoming req see
system.mem_ctrls0.rdQLenPdf::12                     0                       # What read queue length does an incoming req see
system.mem_ctrls0.rdQLenPdf::13                     0                       # What read queue length does an incoming req see
system.mem_ctrls0.rdQLenPdf::14                     0                       # What read queue length does an incoming req see
system.mem_ctrls0.rdQLenPdf::15                     0                       # What read queue length does an incoming req see
system.mem_ctrls0.rdQLenPdf::16                     0                       # What read queue length does an incoming req see
system.mem_ctrls0.rdQLenPdf::17                     0                       # What read queue length does an incoming req see
system.mem_ctrls0.rdQLenPdf::18                     0                       # What read queue length does an incoming req see
system.mem_ctrls0.rdQLenPdf::19                     0                       # What read queue length does an incoming req see
system.mem_ctrls0.rdQLenPdf::20                     0                       # What read queue length does an incoming req see
system.mem_ctrls0.rdQLenPdf::21                     0                       # What read queue length does an incoming req see
system.mem_ctrls0.rdQLenPdf::22                     0                       # What read queue length does an incoming req see
system.mem_ctrls0.rdQLenPdf::23                     0                       # What read queue length does an incoming req see
system.mem_ctrls0.rdQLenPdf::24                     0                       # What read queue length does an incoming req see
system.mem_ctrls0.rdQLenPdf::25                     0                       # What read queue length does an incoming req see
system.mem_ctrls0.rdQLenPdf::26                     0                       # What read queue length does an incoming req see
system.mem_ctrls0.rdQLenPdf::27                     0                       # What read queue length does an incoming req see
system.mem_ctrls0.rdQLenPdf::28                     0                       # What read queue length does an incoming req see
system.mem_ctrls0.rdQLenPdf::29                     0                       # What read queue length does an incoming req see
system.mem_ctrls0.rdQLenPdf::30                     0                       # What read queue length does an incoming req see
system.mem_ctrls0.rdQLenPdf::31                     0                       # What read queue length does an incoming req see
system.mem_ctrls0.wrQLenPdf::0                      2                       # What write queue length does an incoming req see
system.mem_ctrls0.wrQLenPdf::1                      2                       # What write queue length does an incoming req see
system.mem_ctrls0.wrQLenPdf::2                      2                       # What write queue length does an incoming req see
system.mem_ctrls0.wrQLenPdf::3                      2                       # What write queue length does an incoming req see
system.mem_ctrls0.wrQLenPdf::4                      2                       # What write queue length does an incoming req see
system.mem_ctrls0.wrQLenPdf::5                      2                       # What write queue length does an incoming req see
system.mem_ctrls0.wrQLenPdf::6                      2                       # What write queue length does an incoming req see
system.mem_ctrls0.wrQLenPdf::7                      2                       # What write queue length does an incoming req see
system.mem_ctrls0.wrQLenPdf::8                      2                       # What write queue length does an incoming req see
system.mem_ctrls0.wrQLenPdf::9                      2                       # What write queue length does an incoming req see
system.mem_ctrls0.wrQLenPdf::10                     2                       # What write queue length does an incoming req see
system.mem_ctrls0.wrQLenPdf::11                     2                       # What write queue length does an incoming req see
system.mem_ctrls0.wrQLenPdf::12                     2                       # What write queue length does an incoming req see
system.mem_ctrls0.wrQLenPdf::13                     2                       # What write queue length does an incoming req see
system.mem_ctrls0.wrQLenPdf::14                     2                       # What write queue length does an incoming req see
system.mem_ctrls0.wrQLenPdf::15                  4193                       # What write queue length does an incoming req see
system.mem_ctrls0.wrQLenPdf::16                  4251                       # What write queue length does an incoming req see
system.mem_ctrls0.wrQLenPdf::17                  5161                       # What write queue length does an incoming req see
system.mem_ctrls0.wrQLenPdf::18                  5257                       # What write queue length does an incoming req see
system.mem_ctrls0.wrQLenPdf::19                  5270                       # What write queue length does an incoming req see
system.mem_ctrls0.wrQLenPdf::20                  5260                       # What write queue length does an incoming req see
system.mem_ctrls0.wrQLenPdf::21                  5274                       # What write queue length does an incoming req see
system.mem_ctrls0.wrQLenPdf::22                  5262                       # What write queue length does an incoming req see
system.mem_ctrls0.wrQLenPdf::23                  5269                       # What write queue length does an incoming req see
system.mem_ctrls0.wrQLenPdf::24                  5271                       # What write queue length does an incoming req see
system.mem_ctrls0.wrQLenPdf::25                  5307                       # What write queue length does an incoming req see
system.mem_ctrls0.wrQLenPdf::26                  5289                       # What write queue length does an incoming req see
system.mem_ctrls0.wrQLenPdf::27                  5263                       # What write queue length does an incoming req see
system.mem_ctrls0.wrQLenPdf::28                  5258                       # What write queue length does an incoming req see
system.mem_ctrls0.wrQLenPdf::29                  5253                       # What write queue length does an incoming req see
system.mem_ctrls0.wrQLenPdf::30                  5256                       # What write queue length does an incoming req see
system.mem_ctrls0.wrQLenPdf::31                  5237                       # What write queue length does an incoming req see
system.mem_ctrls0.wrQLenPdf::32                  5234                       # What write queue length does an incoming req see
system.mem_ctrls0.wrQLenPdf::33                    86                       # What write queue length does an incoming req see
system.mem_ctrls0.wrQLenPdf::34                    16                       # What write queue length does an incoming req see
system.mem_ctrls0.wrQLenPdf::35                     8                       # What write queue length does an incoming req see
system.mem_ctrls0.wrQLenPdf::36                     3                       # What write queue length does an incoming req see
system.mem_ctrls0.wrQLenPdf::37                     1                       # What write queue length does an incoming req see
system.mem_ctrls0.wrQLenPdf::38                     1                       # What write queue length does an incoming req see
system.mem_ctrls0.wrQLenPdf::39                     1                       # What write queue length does an incoming req see
system.mem_ctrls0.wrQLenPdf::40                     0                       # What write queue length does an incoming req see
system.mem_ctrls0.wrQLenPdf::41                     0                       # What write queue length does an incoming req see
system.mem_ctrls0.wrQLenPdf::42                     0                       # What write queue length does an incoming req see
system.mem_ctrls0.wrQLenPdf::43                     0                       # What write queue length does an incoming req see
system.mem_ctrls0.wrQLenPdf::44                     0                       # What write queue length does an incoming req see
system.mem_ctrls0.wrQLenPdf::45                     0                       # What write queue length does an incoming req see
system.mem_ctrls0.wrQLenPdf::46                     0                       # What write queue length does an incoming req see
system.mem_ctrls0.wrQLenPdf::47                     0                       # What write queue length does an incoming req see
system.mem_ctrls0.wrQLenPdf::48                     0                       # What write queue length does an incoming req see
system.mem_ctrls0.wrQLenPdf::49                     0                       # What write queue length does an incoming req see
system.mem_ctrls0.wrQLenPdf::50                     0                       # What write queue length does an incoming req see
system.mem_ctrls0.wrQLenPdf::51                     0                       # What write queue length does an incoming req see
system.mem_ctrls0.wrQLenPdf::52                     0                       # What write queue length does an incoming req see
system.mem_ctrls0.wrQLenPdf::53                     0                       # What write queue length does an incoming req see
system.mem_ctrls0.wrQLenPdf::54                     0                       # What write queue length does an incoming req see
system.mem_ctrls0.wrQLenPdf::55                     0                       # What write queue length does an incoming req see
system.mem_ctrls0.wrQLenPdf::56                     0                       # What write queue length does an incoming req see
system.mem_ctrls0.wrQLenPdf::57                     0                       # What write queue length does an incoming req see
system.mem_ctrls0.wrQLenPdf::58                     0                       # What write queue length does an incoming req see
system.mem_ctrls0.wrQLenPdf::59                     0                       # What write queue length does an incoming req see
system.mem_ctrls0.wrQLenPdf::60                     0                       # What write queue length does an incoming req see
system.mem_ctrls0.wrQLenPdf::61                     0                       # What write queue length does an incoming req see
system.mem_ctrls0.wrQLenPdf::62                     0                       # What write queue length does an incoming req see
system.mem_ctrls0.wrQLenPdf::63                     0                       # What write queue length does an incoming req see
system.mem_ctrls0.bytesPerActivate::samples       212104                       # Bytes accessed per row activation
system.mem_ctrls0.bytesPerActivate::mean    72.989100                       # Bytes accessed per row activation
system.mem_ctrls0.bytesPerActivate::gmean    68.304364                       # Bytes accessed per row activation
system.mem_ctrls0.bytesPerActivate::stdev    55.654668                       # Bytes accessed per row activation
system.mem_ctrls0.bytesPerActivate::0-127       197072     92.91%     92.91% # Bytes accessed per row activation
system.mem_ctrls0.bytesPerActivate::128-255        12862      6.06%     98.98% # Bytes accessed per row activation
system.mem_ctrls0.bytesPerActivate::256-383          882      0.42%     99.39% # Bytes accessed per row activation
system.mem_ctrls0.bytesPerActivate::384-511          377      0.18%     99.57% # Bytes accessed per row activation
system.mem_ctrls0.bytesPerActivate::512-639          223      0.11%     99.68% # Bytes accessed per row activation
system.mem_ctrls0.bytesPerActivate::640-767          165      0.08%     99.75% # Bytes accessed per row activation
system.mem_ctrls0.bytesPerActivate::768-895           99      0.05%     99.80% # Bytes accessed per row activation
system.mem_ctrls0.bytesPerActivate::896-1023          205      0.10%     99.90% # Bytes accessed per row activation
system.mem_ctrls0.bytesPerActivate::1024-1151          219      0.10%    100.00% # Bytes accessed per row activation
system.mem_ctrls0.bytesPerActivate::total       212104                       # Bytes accessed per row activation
system.mem_ctrls0.rdPerTurnAround::samples         5235                       # Reads before turning the bus around for writes
system.mem_ctrls0.rdPerTurnAround::mean     28.502197                       # Reads before turning the bus around for writes
system.mem_ctrls0.rdPerTurnAround::stdev   358.451201                       # Reads before turning the bus around for writes
system.mem_ctrls0.rdPerTurnAround::0-1023         5234     99.98%     99.98% # Reads before turning the bus around for writes
system.mem_ctrls0.rdPerTurnAround::25600-26623            1      0.02%    100.00% # Reads before turning the bus around for writes
system.mem_ctrls0.rdPerTurnAround::total         5235                       # Reads before turning the bus around for writes
system.mem_ctrls0.wrPerTurnAround::samples         5235                       # Writes before turning the bus around for reads
system.mem_ctrls0.wrPerTurnAround::mean     17.705062                       # Writes before turning the bus around for reads
system.mem_ctrls0.wrPerTurnAround::gmean    17.680140                       # Writes before turning the bus around for reads
system.mem_ctrls0.wrPerTurnAround::stdev     0.935911                       # Writes before turning the bus around for reads
system.mem_ctrls0.wrPerTurnAround::16             998     19.06%     19.06% # Writes before turning the bus around for reads
system.mem_ctrls0.wrPerTurnAround::17              42      0.80%     19.87% # Writes before turning the bus around for reads
system.mem_ctrls0.wrPerTurnAround::18            3814     72.86%     92.72% # Writes before turning the bus around for reads
system.mem_ctrls0.wrPerTurnAround::19             320      6.11%     98.83% # Writes before turning the bus around for reads
system.mem_ctrls0.wrPerTurnAround::20              41      0.78%     99.62% # Writes before turning the bus around for reads
system.mem_ctrls0.wrPerTurnAround::21               8      0.15%     99.77% # Writes before turning the bus around for reads
system.mem_ctrls0.wrPerTurnAround::22               5      0.10%     99.87% # Writes before turning the bus around for reads
system.mem_ctrls0.wrPerTurnAround::23               4      0.08%     99.94% # Writes before turning the bus around for reads
system.mem_ctrls0.wrPerTurnAround::25               1      0.02%     99.96% # Writes before turning the bus around for reads
system.mem_ctrls0.wrPerTurnAround::28               1      0.02%     99.98% # Writes before turning the bus around for reads
system.mem_ctrls0.wrPerTurnAround::29               1      0.02%    100.00% # Writes before turning the bus around for reads
system.mem_ctrls0.wrPerTurnAround::total         5235                       # Writes before turning the bus around for reads
system.mem_ctrls0.totQLat                 27661539998                       # Total ticks spent queuing
system.mem_ctrls0.totMemAccLat            30459208748                       # Total ticks spent from burst creation until serviced by the DRAM
system.mem_ctrls0.totBusLat                 746045000                       # Total ticks spent in databus transfers
system.mem_ctrls0.avgQLat                   185387.88                       # Average queueing delay per DRAM burst
system.mem_ctrls0.avgBusLat                   5000.00                       # Average bus latency per DRAM burst
system.mem_ctrls0.avgMemAccLat              204137.88                       # Average memory access latency per DRAM burst
system.mem_ctrls0.avgRdBW                        8.56                       # Average DRAM read bandwidth in MiByte/s
system.mem_ctrls0.avgWrBW                        5.32                       # Average achieved write bandwidth in MiByte/s
system.mem_ctrls0.avgRdBWSys                     8.57                       # Average system read bandwidth in MiByte/s
system.mem_ctrls0.avgWrBWSys                     5.32                       # Average system write bandwidth in MiByte/s
system.mem_ctrls0.peakBW                     12800.00                       # Theoretical peak bandwidth in MiByte/s
system.mem_ctrls0.busUtil                        0.11                       # Data bus utilization in percentage
system.mem_ctrls0.busUtilRead                    0.07                       # Data bus utilization in percentage for reads
system.mem_ctrls0.busUtilWrite                   0.04                       # Data bus utilization in percentage for writes
system.mem_ctrls0.avgRdQLen                      1.00                       # Average read queue length when enqueuing
system.mem_ctrls0.avgWrQLen                     20.85                       # Average write queue length when enqueuing
system.mem_ctrls0.readRowHits                   20655                       # Number of row buffer hits during reads
system.mem_ctrls0.writeRowHits                   9136                       # Number of row buffer hits during writes
system.mem_ctrls0.readRowHitRate                13.84                       # Row buffer hit rate for reads
system.mem_ctrls0.writeRowHitRate                9.85                       # Row buffer hit rate for writes
system.mem_ctrls0.avgGap                   4607734.16                       # Average gap between requests
system.mem_ctrls0.pageHitRate                   12.31                       # Row buffer hit rate, read and write combined
system.mem_ctrls0_0.actEnergy               762680520                       # Energy for activate commands per rank (pJ)
system.mem_ctrls0_0.preEnergy               405374310                       # Energy for precharge commands per rank (pJ)
system.mem_ctrls0_0.readEnergy              534300480                       # Energy for read commands per rank (pJ)
system.mem_ctrls0_0.writeEnergy             244061100                       # Energy for write commands per rank (pJ)
system.mem_ctrls0_0.refreshEnergy        58151705040.000015                       # Energy for refresh commands per rank (pJ)
system.mem_ctrls0_0.actBackEnergy         20260550250                       # Energy for active background per rank (pJ)
system.mem_ctrls0_0.preBackEnergy          3389984160                       # Energy for precharge background per rank (pJ)
system.mem_ctrls0_0.actPowerDownEnergy   115063142910                       # Energy for active power-down per rank (pJ)
system.mem_ctrls0_0.prePowerDownEnergy    96883398720                       # Energy for precharge power-down per rank (pJ)
system.mem_ctrls0_0.selfRefreshEnergy    147339753210                       # Energy for self refresh per rank (pJ)
system.mem_ctrls0_0.totalEnergy          443063123100                       # Total energy per rank (pJ)
system.mem_ctrls0_0.averagePower           397.351959                       # Core power per rank (mW)
system.mem_ctrls0_0.totalIdleTime        1061714593683                       # Total Idle time Per DRAM Rank
system.mem_ctrls0_0.memoryStateTime::IDLE   6786626990                       # Time in different power states
system.mem_ctrls0_0.memoryStateTime::REF  24749598000                       # Time in different power states
system.mem_ctrls0_0.memoryStateTime::SREF 557085717541                       # Time in different power states
system.mem_ctrls0_0.memoryStateTime::PRE_PDN 252300525362                       # Time in different power states
system.mem_ctrls0_0.memoryStateTime::ACT  21785499770                       # Time in different power states
system.mem_ctrls0_0.memoryStateTime::ACT_PDN 252331502378                       # Time in different power states
system.mem_ctrls0_1.actEnergy               751742040                       # Energy for activate commands per rank (pJ)
system.mem_ctrls0_1.preEnergy               399560370                       # Energy for precharge commands per rank (pJ)
system.mem_ctrls0_1.readEnergy              531051780                       # Energy for read commands per rank (pJ)
system.mem_ctrls0_1.writeEnergy             239759820                       # Energy for write commands per rank (pJ)
system.mem_ctrls0_1.refreshEnergy        58189812720.000015                       # Energy for refresh commands per rank (pJ)
system.mem_ctrls0_1.actBackEnergy         20145527100                       # Energy for active background per rank (pJ)
system.mem_ctrls0_1.preBackEnergy          3421740480                       # Energy for precharge background per rank (pJ)
system.mem_ctrls0_1.actPowerDownEnergy   114489972000                       # Energy for active power-down per rank (pJ)
system.mem_ctrls0_1.prePowerDownEnergy    97043622240                       # Energy for precharge power-down per rank (pJ)
system.mem_ctrls0_1.selfRefreshEnergy    147696054750                       # Energy for self refresh per rank (pJ)
system.mem_ctrls0_1.totalEnergy          442936211190                       # Total energy per rank (pJ)
system.mem_ctrls0_1.averagePower           397.238138                       # Core power per rank (mW)
system.mem_ctrls0_1.totalIdleTime        1061881453047                       # Total Idle time Per DRAM Rank
system.mem_ctrls0_1.memoryStateTime::IDLE   6868740001                       # Time in different power states
system.mem_ctrls0_1.memoryStateTime::REF  24766624000                       # Time in different power states
system.mem_ctrls0_1.memoryStateTime::SREF 558096636891                       # Time in different power states
system.mem_ctrls0_1.memoryStateTime::PRE_PDN 252717565828                       # Time in different power states
system.mem_ctrls0_1.memoryStateTime::ACT  21515525843                       # Time in different power states
system.mem_ctrls0_1.memoryStateTime::ACT_PDN 251074377478                       # Time in different power states
system.mem_ctrls1.pwrStateResidencyTicks::UNDEFINED 18768380860971                       # Cumulative time (in ticks) in various power states
system.mem_ctrls1.bytes_read::cpu.inst            128                       # Number of bytes read from this memory
system.mem_ctrls1.bytes_read::cpu.data            192                       # Number of bytes read from this memory
system.mem_ctrls1.bytes_read::switch_cpus.inst       115008                       # Number of bytes read from this memory
system.mem_ctrls1.bytes_read::switch_cpus.data      8077184                       # Number of bytes read from this memory
system.mem_ctrls1.bytes_read::switch_cpus_1.inst        14336                       # Number of bytes read from this memory
system.mem_ctrls1.bytes_read::switch_cpus_1.data      1377152                       # Number of bytes read from this memory
system.mem_ctrls1.bytes_read::total           9584000                       # Number of bytes read from this memory
system.mem_ctrls1.bytes_inst_read::cpu.inst          128                       # Number of instructions bytes read from this memory
system.mem_ctrls1.bytes_inst_read::switch_cpus.inst       115008                       # Number of instructions bytes read from this memory
system.mem_ctrls1.bytes_inst_read::switch_cpus_1.inst        14336                       # Number of instructions bytes read from this memory
system.mem_ctrls1.bytes_inst_read::total       129472                       # Number of instructions bytes read from this memory
system.mem_ctrls1.bytes_written::writebacks      5943488                       # Number of bytes written to this memory
system.mem_ctrls1.bytes_written::total        5943488                       # Number of bytes written to this memory
system.mem_ctrls1.num_reads::cpu.inst               2                       # Number of read requests responded to by this memory
system.mem_ctrls1.num_reads::cpu.data               3                       # Number of read requests responded to by this memory
system.mem_ctrls1.num_reads::switch_cpus.inst         1797                       # Number of read requests responded to by this memory
system.mem_ctrls1.num_reads::switch_cpus.data       126206                       # Number of read requests responded to by this memory
system.mem_ctrls1.num_reads::switch_cpus_1.inst          224                       # Number of read requests responded to by this memory
system.mem_ctrls1.num_reads::switch_cpus_1.data        21518                       # Number of read requests responded to by this memory
system.mem_ctrls1.num_reads::total             149750                       # Number of read requests responded to by this memory
system.mem_ctrls1.num_writes::writebacks        92867                       # Number of write requests responded to by this memory
system.mem_ctrls1.num_writes::total             92867                       # Number of write requests responded to by this memory
system.mem_ctrls1.bw_read::cpu.inst               115                       # Total read bandwidth from this memory (bytes/s)
system.mem_ctrls1.bw_read::cpu.data               172                       # Total read bandwidth from this memory (bytes/s)
system.mem_ctrls1.bw_read::switch_cpus.inst       103143                       # Total read bandwidth from this memory (bytes/s)
system.mem_ctrls1.bw_read::switch_cpus.data      7243855                       # Total read bandwidth from this memory (bytes/s)
system.mem_ctrls1.bw_read::switch_cpus_1.inst        12857                       # Total read bandwidth from this memory (bytes/s)
system.mem_ctrls1.bw_read::switch_cpus_1.data      1235070                       # Total read bandwidth from this memory (bytes/s)
system.mem_ctrls1.bw_read::total              8595211                       # Total read bandwidth from this memory (bytes/s)
system.mem_ctrls1.bw_inst_read::cpu.inst          115                       # Instruction read bandwidth from this memory (bytes/s)
system.mem_ctrls1.bw_inst_read::switch_cpus.inst       103143                       # Instruction read bandwidth from this memory (bytes/s)
system.mem_ctrls1.bw_inst_read::switch_cpus_1.inst        12857                       # Instruction read bandwidth from this memory (bytes/s)
system.mem_ctrls1.bw_inst_read::total          116114                       # Instruction read bandwidth from this memory (bytes/s)
system.mem_ctrls1.bw_write::writebacks        5330294                       # Write bandwidth from this memory (bytes/s)
system.mem_ctrls1.bw_write::total             5330294                       # Write bandwidth from this memory (bytes/s)
system.mem_ctrls1.bw_total::writebacks        5330294                       # Total bandwidth to/from this memory (bytes/s)
system.mem_ctrls1.bw_total::cpu.inst              115                       # Total bandwidth to/from this memory (bytes/s)
system.mem_ctrls1.bw_total::cpu.data              172                       # Total bandwidth to/from this memory (bytes/s)
system.mem_ctrls1.bw_total::switch_cpus.inst       103143                       # Total bandwidth to/from this memory (bytes/s)
system.mem_ctrls1.bw_total::switch_cpus.data      7243855                       # Total bandwidth to/from this memory (bytes/s)
system.mem_ctrls1.bw_total::switch_cpus_1.inst        12857                       # Total bandwidth to/from this memory (bytes/s)
system.mem_ctrls1.bw_total::switch_cpus_1.data      1235070                       # Total bandwidth to/from this memory (bytes/s)
system.mem_ctrls1.bw_total::total            13925505                       # Total bandwidth to/from this memory (bytes/s)
system.mem_ctrls1.readReqs                     149750                       # Number of read requests accepted
system.mem_ctrls1.writeReqs                     92867                       # Number of write requests accepted
system.mem_ctrls1.readBursts                   149750                       # Number of DRAM read bursts, including those serviced by the write queue
system.mem_ctrls1.writeBursts                   92867                       # Number of DRAM write bursts, including those merged in the write queue
system.mem_ctrls1.bytesReadDRAM               9578240                       # Total number of bytes read from DRAM
system.mem_ctrls1.bytesReadWrQ                   5760                       # Total number of bytes read from write queue
system.mem_ctrls1.bytesWritten                5941760                       # Total number of bytes written to DRAM
system.mem_ctrls1.bytesReadSys                9584000                       # Total read bytes from the system interface side
system.mem_ctrls1.bytesWrittenSys             5943488                       # Total written bytes from the system interface side
system.mem_ctrls1.servicedByWrQ                    90                       # Number of DRAM read bursts serviced by the write queue
system.mem_ctrls1.mergedWrBursts                    0                       # Number of DRAM write bursts merged with an existing one
system.mem_ctrls1.neitherReadNorWriteReqs            0                       # Number of requests that are neither read nor write
system.mem_ctrls1.perBankRdBursts::0             9076                       # Per bank write bursts
system.mem_ctrls1.perBankRdBursts::1             9360                       # Per bank write bursts
system.mem_ctrls1.perBankRdBursts::2             9496                       # Per bank write bursts
system.mem_ctrls1.perBankRdBursts::3             9814                       # Per bank write bursts
system.mem_ctrls1.perBankRdBursts::4             9738                       # Per bank write bursts
system.mem_ctrls1.perBankRdBursts::5             9651                       # Per bank write bursts
system.mem_ctrls1.perBankRdBursts::6             8839                       # Per bank write bursts
system.mem_ctrls1.perBankRdBursts::7             9135                       # Per bank write bursts
system.mem_ctrls1.perBankRdBursts::8             9538                       # Per bank write bursts
system.mem_ctrls1.perBankRdBursts::9             9772                       # Per bank write bursts
system.mem_ctrls1.perBankRdBursts::10            9248                       # Per bank write bursts
system.mem_ctrls1.perBankRdBursts::11            9648                       # Per bank write bursts
system.mem_ctrls1.perBankRdBursts::12            9398                       # Per bank write bursts
system.mem_ctrls1.perBankRdBursts::13            9197                       # Per bank write bursts
system.mem_ctrls1.perBankRdBursts::14            8856                       # Per bank write bursts
system.mem_ctrls1.perBankRdBursts::15            8894                       # Per bank write bursts
system.mem_ctrls1.perBankWrBursts::0             5831                       # Per bank write bursts
system.mem_ctrls1.perBankWrBursts::1             6048                       # Per bank write bursts
system.mem_ctrls1.perBankWrBursts::2             5927                       # Per bank write bursts
system.mem_ctrls1.perBankWrBursts::3             6102                       # Per bank write bursts
system.mem_ctrls1.perBankWrBursts::4             6022                       # Per bank write bursts
system.mem_ctrls1.perBankWrBursts::5             5915                       # Per bank write bursts
system.mem_ctrls1.perBankWrBursts::6             5338                       # Per bank write bursts
system.mem_ctrls1.perBankWrBursts::7             5495                       # Per bank write bursts
system.mem_ctrls1.perBankWrBursts::8             5497                       # Per bank write bursts
system.mem_ctrls1.perBankWrBursts::9             5637                       # Per bank write bursts
system.mem_ctrls1.perBankWrBursts::10            5881                       # Per bank write bursts
system.mem_ctrls1.perBankWrBursts::11            6334                       # Per bank write bursts
system.mem_ctrls1.perBankWrBursts::12            5981                       # Per bank write bursts
system.mem_ctrls1.perBankWrBursts::13            5662                       # Per bank write bursts
system.mem_ctrls1.perBankWrBursts::14            5507                       # Per bank write bursts
system.mem_ctrls1.perBankWrBursts::15            5663                       # Per bank write bursts
system.mem_ctrls1.numRdRetry                        0                       # Number of times read queue was full causing retry
system.mem_ctrls1.numWrRetry                        0                       # Number of times write queue was full causing retry
system.mem_ctrls1.totGap                 1115037065115                       # Total gap between requests
system.mem_ctrls1.readPktSize::0                    0                       # Read request sizes (log2)
system.mem_ctrls1.readPktSize::1                    0                       # Read request sizes (log2)
system.mem_ctrls1.readPktSize::2                    0                       # Read request sizes (log2)
system.mem_ctrls1.readPktSize::3                    0                       # Read request sizes (log2)
system.mem_ctrls1.readPktSize::4                    0                       # Read request sizes (log2)
system.mem_ctrls1.readPktSize::5                    0                       # Read request sizes (log2)
system.mem_ctrls1.readPktSize::6               149750                       # Read request sizes (log2)
system.mem_ctrls1.writePktSize::0                   0                       # Write request sizes (log2)
system.mem_ctrls1.writePktSize::1                   0                       # Write request sizes (log2)
system.mem_ctrls1.writePktSize::2                   0                       # Write request sizes (log2)
system.mem_ctrls1.writePktSize::3                   0                       # Write request sizes (log2)
system.mem_ctrls1.writePktSize::4                   0                       # Write request sizes (log2)
system.mem_ctrls1.writePktSize::5                   0                       # Write request sizes (log2)
system.mem_ctrls1.writePktSize::6               92867                       # Write request sizes (log2)
system.mem_ctrls1.rdQLenPdf::0                 147888                       # What read queue length does an incoming req see
system.mem_ctrls1.rdQLenPdf::1                   1736                       # What read queue length does an incoming req see
system.mem_ctrls1.rdQLenPdf::2                     35                       # What read queue length does an incoming req see
system.mem_ctrls1.rdQLenPdf::3                      1                       # What read queue length does an incoming req see
system.mem_ctrls1.rdQLenPdf::4                      0                       # What read queue length does an incoming req see
system.mem_ctrls1.rdQLenPdf::5                      0                       # What read queue length does an incoming req see
system.mem_ctrls1.rdQLenPdf::6                      0                       # What read queue length does an incoming req see
system.mem_ctrls1.rdQLenPdf::7                      0                       # What read queue length does an incoming req see
system.mem_ctrls1.rdQLenPdf::8                      0                       # What read queue length does an incoming req see
system.mem_ctrls1.rdQLenPdf::9                      0                       # What read queue length does an incoming req see
system.mem_ctrls1.rdQLenPdf::10                     0                       # What read queue length does an incoming req see
system.mem_ctrls1.rdQLenPdf::11                     0                       # What read queue length does an incoming req see
system.mem_ctrls1.rdQLenPdf::12                     0                       # What read queue length does an incoming req see
system.mem_ctrls1.rdQLenPdf::13                     0                       # What read queue length does an incoming req see
system.mem_ctrls1.rdQLenPdf::14                     0                       # What read queue length does an incoming req see
system.mem_ctrls1.rdQLenPdf::15                     0                       # What read queue length does an incoming req see
system.mem_ctrls1.rdQLenPdf::16                     0                       # What read queue length does an incoming req see
system.mem_ctrls1.rdQLenPdf::17                     0                       # What read queue length does an incoming req see
system.mem_ctrls1.rdQLenPdf::18                     0                       # What read queue length does an incoming req see
system.mem_ctrls1.rdQLenPdf::19                     0                       # What read queue length does an incoming req see
system.mem_ctrls1.rdQLenPdf::20                     0                       # What read queue length does an incoming req see
system.mem_ctrls1.rdQLenPdf::21                     0                       # What read queue length does an incoming req see
system.mem_ctrls1.rdQLenPdf::22                     0                       # What read queue length does an incoming req see
system.mem_ctrls1.rdQLenPdf::23                     0                       # What read queue length does an incoming req see
system.mem_ctrls1.rdQLenPdf::24                     0                       # What read queue length does an incoming req see
system.mem_ctrls1.rdQLenPdf::25                     0                       # What read queue length does an incoming req see
system.mem_ctrls1.rdQLenPdf::26                     0                       # What read queue length does an incoming req see
system.mem_ctrls1.rdQLenPdf::27                     0                       # What read queue length does an incoming req see
system.mem_ctrls1.rdQLenPdf::28                     0                       # What read queue length does an incoming req see
system.mem_ctrls1.rdQLenPdf::29                     0                       # What read queue length does an incoming req see
system.mem_ctrls1.rdQLenPdf::30                     0                       # What read queue length does an incoming req see
system.mem_ctrls1.rdQLenPdf::31                     0                       # What read queue length does an incoming req see
system.mem_ctrls1.wrQLenPdf::0                      2                       # What write queue length does an incoming req see
system.mem_ctrls1.wrQLenPdf::1                      2                       # What write queue length does an incoming req see
system.mem_ctrls1.wrQLenPdf::2                      2                       # What write queue length does an incoming req see
system.mem_ctrls1.wrQLenPdf::3                      2                       # What write queue length does an incoming req see
system.mem_ctrls1.wrQLenPdf::4                      2                       # What write queue length does an incoming req see
system.mem_ctrls1.wrQLenPdf::5                      2                       # What write queue length does an incoming req see
system.mem_ctrls1.wrQLenPdf::6                      2                       # What write queue length does an incoming req see
system.mem_ctrls1.wrQLenPdf::7                      2                       # What write queue length does an incoming req see
system.mem_ctrls1.wrQLenPdf::8                      2                       # What write queue length does an incoming req see
system.mem_ctrls1.wrQLenPdf::9                      2                       # What write queue length does an incoming req see
system.mem_ctrls1.wrQLenPdf::10                     2                       # What write queue length does an incoming req see
system.mem_ctrls1.wrQLenPdf::11                     2                       # What write queue length does an incoming req see
system.mem_ctrls1.wrQLenPdf::12                     2                       # What write queue length does an incoming req see
system.mem_ctrls1.wrQLenPdf::13                     2                       # What write queue length does an incoming req see
system.mem_ctrls1.wrQLenPdf::14                     2                       # What write queue length does an incoming req see
system.mem_ctrls1.wrQLenPdf::15                  4229                       # What write queue length does an incoming req see
system.mem_ctrls1.wrQLenPdf::16                  4298                       # What write queue length does an incoming req see
system.mem_ctrls1.wrQLenPdf::17                  5181                       # What write queue length does an incoming req see
system.mem_ctrls1.wrQLenPdf::18                  5260                       # What write queue length does an incoming req see
system.mem_ctrls1.wrQLenPdf::19                  5266                       # What write queue length does an incoming req see
system.mem_ctrls1.wrQLenPdf::20                  5273                       # What write queue length does an incoming req see
system.mem_ctrls1.wrQLenPdf::21                  5274                       # What write queue length does an incoming req see
system.mem_ctrls1.wrQLenPdf::22                  5276                       # What write queue length does an incoming req see
system.mem_ctrls1.wrQLenPdf::23                  5275                       # What write queue length does an incoming req see
system.mem_ctrls1.wrQLenPdf::24                  5266                       # What write queue length does an incoming req see
system.mem_ctrls1.wrQLenPdf::25                  5306                       # What write queue length does an incoming req see
system.mem_ctrls1.wrQLenPdf::26                  5280                       # What write queue length does an incoming req see
system.mem_ctrls1.wrQLenPdf::27                  5266                       # What write queue length does an incoming req see
system.mem_ctrls1.wrQLenPdf::28                  5267                       # What write queue length does an incoming req see
system.mem_ctrls1.wrQLenPdf::29                  5252                       # What write queue length does an incoming req see
system.mem_ctrls1.wrQLenPdf::30                  5252                       # What write queue length does an incoming req see
system.mem_ctrls1.wrQLenPdf::31                  5240                       # What write queue length does an incoming req see
system.mem_ctrls1.wrQLenPdf::32                  5239                       # What write queue length does an incoming req see
system.mem_ctrls1.wrQLenPdf::33                   107                       # What write queue length does an incoming req see
system.mem_ctrls1.wrQLenPdf::34                    20                       # What write queue length does an incoming req see
system.mem_ctrls1.wrQLenPdf::35                     4                       # What write queue length does an incoming req see
system.mem_ctrls1.wrQLenPdf::36                     2                       # What write queue length does an incoming req see
system.mem_ctrls1.wrQLenPdf::37                     2                       # What write queue length does an incoming req see
system.mem_ctrls1.wrQLenPdf::38                     1                       # What write queue length does an incoming req see
system.mem_ctrls1.wrQLenPdf::39                     1                       # What write queue length does an incoming req see
system.mem_ctrls1.wrQLenPdf::40                     0                       # What write queue length does an incoming req see
system.mem_ctrls1.wrQLenPdf::41                     0                       # What write queue length does an incoming req see
system.mem_ctrls1.wrQLenPdf::42                     0                       # What write queue length does an incoming req see
system.mem_ctrls1.wrQLenPdf::43                     0                       # What write queue length does an incoming req see
system.mem_ctrls1.wrQLenPdf::44                     0                       # What write queue length does an incoming req see
system.mem_ctrls1.wrQLenPdf::45                     0                       # What write queue length does an incoming req see
system.mem_ctrls1.wrQLenPdf::46                     0                       # What write queue length does an incoming req see
system.mem_ctrls1.wrQLenPdf::47                     0                       # What write queue length does an incoming req see
system.mem_ctrls1.wrQLenPdf::48                     0                       # What write queue length does an incoming req see
system.mem_ctrls1.wrQLenPdf::49                     0                       # What write queue length does an incoming req see
system.mem_ctrls1.wrQLenPdf::50                     0                       # What write queue length does an incoming req see
system.mem_ctrls1.wrQLenPdf::51                     0                       # What write queue length does an incoming req see
system.mem_ctrls1.wrQLenPdf::52                     0                       # What write queue length does an incoming req see
system.mem_ctrls1.wrQLenPdf::53                     0                       # What write queue length does an incoming req see
system.mem_ctrls1.wrQLenPdf::54                     0                       # What write queue length does an incoming req see
system.mem_ctrls1.wrQLenPdf::55                     0                       # What write queue length does an incoming req see
system.mem_ctrls1.wrQLenPdf::56                     0                       # What write queue length does an incoming req see
system.mem_ctrls1.wrQLenPdf::57                     0                       # What write queue length does an incoming req see
system.mem_ctrls1.wrQLenPdf::58                     0                       # What write queue length does an incoming req see
system.mem_ctrls1.wrQLenPdf::59                     0                       # What write queue length does an incoming req see
system.mem_ctrls1.wrQLenPdf::60                     0                       # What write queue length does an incoming req see
system.mem_ctrls1.wrQLenPdf::61                     0                       # What write queue length does an incoming req see
system.mem_ctrls1.wrQLenPdf::62                     0                       # What write queue length does an incoming req see
system.mem_ctrls1.wrQLenPdf::63                     0                       # What write queue length does an incoming req see
system.mem_ctrls1.bytesPerActivate::samples       212694                       # Bytes accessed per row activation
system.mem_ctrls1.bytesPerActivate::mean    72.968678                       # Bytes accessed per row activation
system.mem_ctrls1.bytesPerActivate::gmean    68.281533                       # Bytes accessed per row activation
system.mem_ctrls1.bytesPerActivate::stdev    56.059125                       # Bytes accessed per row activation
system.mem_ctrls1.bytesPerActivate::0-127       197696     92.95%     92.95% # Bytes accessed per row activation
system.mem_ctrls1.bytesPerActivate::128-255        12876      6.05%     99.00% # Bytes accessed per row activation
system.mem_ctrls1.bytesPerActivate::256-383          855      0.40%     99.40% # Bytes accessed per row activation
system.mem_ctrls1.bytesPerActivate::384-511          346      0.16%     99.57% # Bytes accessed per row activation
system.mem_ctrls1.bytesPerActivate::512-639          221      0.10%     99.67% # Bytes accessed per row activation
system.mem_ctrls1.bytesPerActivate::640-767          146      0.07%     99.74% # Bytes accessed per row activation
system.mem_ctrls1.bytesPerActivate::768-895          108      0.05%     99.79% # Bytes accessed per row activation
system.mem_ctrls1.bytesPerActivate::896-1023          213      0.10%     99.89% # Bytes accessed per row activation
system.mem_ctrls1.bytesPerActivate::1024-1151          233      0.11%    100.00% # Bytes accessed per row activation
system.mem_ctrls1.bytesPerActivate::total       212694                       # Bytes accessed per row activation
system.mem_ctrls1.rdPerTurnAround::samples         5240                       # Reads before turning the bus around for writes
system.mem_ctrls1.rdPerTurnAround::mean     28.561069                       # Reads before turning the bus around for writes
system.mem_ctrls1.rdPerTurnAround::stdev   357.875142                       # Reads before turning the bus around for writes
system.mem_ctrls1.rdPerTurnAround::0-1023         5239     99.98%     99.98% # Reads before turning the bus around for writes
system.mem_ctrls1.rdPerTurnAround::25600-26623            1      0.02%    100.00% # Reads before turning the bus around for writes
system.mem_ctrls1.rdPerTurnAround::total         5240                       # Reads before turning the bus around for writes
system.mem_ctrls1.wrPerTurnAround::samples         5240                       # Writes before turning the bus around for reads
system.mem_ctrls1.wrPerTurnAround::mean     17.717557                       # Writes before turning the bus around for reads
system.mem_ctrls1.wrPerTurnAround::gmean    17.694043                       # Writes before turning the bus around for reads
system.mem_ctrls1.wrPerTurnAround::stdev     0.903640                       # Writes before turning the bus around for reads
system.mem_ctrls1.wrPerTurnAround::16             956     18.24%     18.24% # Writes before turning the bus around for reads
system.mem_ctrls1.wrPerTurnAround::17              53      1.01%     19.26% # Writes before turning the bus around for reads
system.mem_ctrls1.wrPerTurnAround::18            3841     73.30%     92.56% # Writes before turning the bus around for reads
system.mem_ctrls1.wrPerTurnAround::19             328      6.26%     98.82% # Writes before turning the bus around for reads
system.mem_ctrls1.wrPerTurnAround::20              44      0.84%     99.66% # Writes before turning the bus around for reads
system.mem_ctrls1.wrPerTurnAround::21              13      0.25%     99.90% # Writes before turning the bus around for reads
system.mem_ctrls1.wrPerTurnAround::22               2      0.04%     99.94% # Writes before turning the bus around for reads
system.mem_ctrls1.wrPerTurnAround::24               1      0.02%     99.96% # Writes before turning the bus around for reads
system.mem_ctrls1.wrPerTurnAround::25               1      0.02%     99.98% # Writes before turning the bus around for reads
system.mem_ctrls1.wrPerTurnAround::27               1      0.02%    100.00% # Writes before turning the bus around for reads
system.mem_ctrls1.wrPerTurnAround::total         5240                       # Writes before turning the bus around for reads
system.mem_ctrls1.totQLat                 27757931048                       # Total ticks spent queuing
system.mem_ctrls1.totMemAccLat            30564056048                       # Total ticks spent from burst creation until serviced by the DRAM
system.mem_ctrls1.totBusLat                 748300000                       # Total ticks spent in databus transfers
system.mem_ctrls1.avgQLat                   185473.28                       # Average queueing delay per DRAM burst
system.mem_ctrls1.avgBusLat                   5000.00                       # Average bus latency per DRAM burst
system.mem_ctrls1.avgMemAccLat              204223.28                       # Average memory access latency per DRAM burst
system.mem_ctrls1.avgRdBW                        8.59                       # Average DRAM read bandwidth in MiByte/s
system.mem_ctrls1.avgWrBW                        5.33                       # Average achieved write bandwidth in MiByte/s
system.mem_ctrls1.avgRdBWSys                     8.60                       # Average system read bandwidth in MiByte/s
system.mem_ctrls1.avgWrBWSys                     5.33                       # Average system write bandwidth in MiByte/s
system.mem_ctrls1.peakBW                     12800.00                       # Theoretical peak bandwidth in MiByte/s
system.mem_ctrls1.busUtil                        0.11                       # Data bus utilization in percentage
system.mem_ctrls1.busUtilRead                    0.07                       # Data bus utilization in percentage for reads
system.mem_ctrls1.busUtilWrite                   0.04                       # Data bus utilization in percentage for writes
system.mem_ctrls1.avgRdQLen                      1.00                       # Average read queue length when enqueuing
system.mem_ctrls1.avgWrQLen                     20.85                       # Average write queue length when enqueuing
system.mem_ctrls1.readRowHits                   20601                       # Number of row buffer hits during reads
system.mem_ctrls1.writeRowHits                   9205                       # Number of row buffer hits during writes
system.mem_ctrls1.readRowHitRate                13.77                       # Row buffer hit rate for reads
system.mem_ctrls1.writeRowHitRate                9.91                       # Row buffer hit rate for writes
system.mem_ctrls1.avgGap                   4595873.60                       # Average gap between requests
system.mem_ctrls1.pageHitRate                   12.29                       # Row buffer hit rate, read and write combined
system.mem_ctrls1_0.actEnergy               765043860                       # Energy for activate commands per rank (pJ)
system.mem_ctrls1_0.preEnergy               406630455                       # Energy for precharge commands per rank (pJ)
system.mem_ctrls1_0.readEnergy              536278260                       # Energy for read commands per rank (pJ)
system.mem_ctrls1_0.writeEnergy             243659160                       # Energy for write commands per rank (pJ)
system.mem_ctrls1_0.refreshEnergy        58417844160.000015                       # Energy for refresh commands per rank (pJ)
system.mem_ctrls1_0.actBackEnergy         20305131660                       # Energy for active background per rank (pJ)
system.mem_ctrls1_0.preBackEnergy          3417220800                       # Energy for precharge background per rank (pJ)
system.mem_ctrls1_0.actPowerDownEnergy   115625771100                       # Energy for active power-down per rank (pJ)
system.mem_ctrls1_0.prePowerDownEnergy    97203421440                       # Energy for precharge power-down per rank (pJ)
system.mem_ctrls1_0.selfRefreshEnergy    146888923380                       # Energy for self refresh per rank (pJ)
system.mem_ctrls1_0.totalEnergy          443833609545                       # Total energy per rank (pJ)
system.mem_ctrls1_0.averagePower           398.042957                       # Core power per rank (mW)
system.mem_ctrls1_0.totalIdleTime        1061554011070                       # Total Idle time Per DRAM Rank
system.mem_ctrls1_0.memoryStateTime::IDLE   6837573489                       # Time in different power states
system.mem_ctrls1_0.memoryStateTime::REF  24862988000                       # Time in different power states
system.mem_ctrls1_0.memoryStateTime::SREF 554859810791                       # Time in different power states
system.mem_ctrls1_0.memoryStateTime::PRE_PDN 253134145842                       # Time in different power states
system.mem_ctrls1_0.memoryStateTime::ACT  21779871892                       # Time in different power states
system.mem_ctrls1_0.memoryStateTime::ACT_PDN 253565080027                       # Time in different power states
system.mem_ctrls1_1.actEnergy               753591300                       # Energy for activate commands per rank (pJ)
system.mem_ctrls1_1.preEnergy               400543275                       # Energy for precharge commands per rank (pJ)
system.mem_ctrls1_1.readEnergy              532294140                       # Energy for read commands per rank (pJ)
system.mem_ctrls1_1.writeEnergy             240965640                       # Energy for write commands per rank (pJ)
system.mem_ctrls1_1.refreshEnergy        58303521120.000015                       # Energy for refresh commands per rank (pJ)
system.mem_ctrls1_1.actBackEnergy         20272792140                       # Energy for active background per rank (pJ)
system.mem_ctrls1_1.preBackEnergy          3418590720                       # Energy for precharge background per rank (pJ)
system.mem_ctrls1_1.actPowerDownEnergy   114948766710                       # Energy for active power-down per rank (pJ)
system.mem_ctrls1_1.prePowerDownEnergy    97083442560                       # Energy for precharge power-down per rank (pJ)
system.mem_ctrls1_1.selfRefreshEnergy    147368720805                       # Energy for self refresh per rank (pJ)
system.mem_ctrls1_1.totalEnergy          443348166900                       # Total energy per rank (pJ)
system.mem_ctrls1_1.averagePower           397.607593                       # Core power per rank (mW)
system.mem_ctrls1_1.totalIdleTime        1061619918167                       # Total Idle time Per DRAM Rank
system.mem_ctrls1_1.memoryStateTime::IDLE   6849508442                       # Time in different power states
system.mem_ctrls1_1.memoryStateTime::REF  24814982000                       # Time in different power states
system.mem_ctrls1_1.memoryStateTime::SREF 556721317541                       # Time in different power states
system.mem_ctrls1_1.memoryStateTime::PRE_PDN 252821484936                       # Time in different power states
system.mem_ctrls1_1.memoryStateTime::ACT  21751427443                       # Time in different power states
system.mem_ctrls1_1.memoryStateTime::ACT_PDN 252080749679                       # Time in different power states
system.pwrStateResidencyTicks::UNDEFINED 18768380860971                       # Cumulative time (in ticks) in various power states
system.cpu.branchPred.lookups                       3                       # Number of BP lookups
system.cpu.branchPred.condPredicted                 1                       # Number of conditional branches predicted
system.cpu.branchPred.condIncorrect                 1                       # Number of conditional branches incorrect
system.cpu.branchPred.BTBLookups                    2                       # Number of BTB lookups
system.cpu.branchPred.BTBHits                       0                       # Number of BTB hits
system.cpu.branchPred.BTBCorrect                    0                       # Number of correct BTB predictions (this stat may not work properly.
system.cpu.branchPred.BTBHitPct              0.000000                       # BTB Hit Percentage
system.cpu.branchPred.usedRAS                       0                       # Number of times the RAS was used to get a target.
system.cpu.branchPred.RASInCorrect                  0                       # Number of incorrect RAS predictions.
system.cpu.branchPred.indirectLookups               0                       # Number of indirect predictor lookups.
system.cpu.branchPred.indirectHits                  0                       # Number of indirect target hits.
system.cpu.branchPred.indirectMisses                0                       # Number of indirect misses.
system.cpu.branchPredindirectMispredicted            0                       # Number of mispredicted indirect branches.
system.cpu_voltage_domain.voltage                   1                       # Voltage in Volts
system.cpu_clk_domain.clock                       333                       # Clock period in ticks
system.cpu.dtb.fetch_hits                           0                       # ITB hits
system.cpu.dtb.fetch_misses                         0                       # ITB misses
system.cpu.dtb.fetch_acv                            0                       # ITB acv
system.cpu.dtb.fetch_accesses                       0                       # ITB accesses
system.cpu.dtb.read_hits                            3                       # DTB read hits
system.cpu.dtb.read_misses                          0                       # DTB read misses
system.cpu.dtb.read_acv                             0                       # DTB read access violations
system.cpu.dtb.read_accesses                        3                       # DTB read accesses
system.cpu.dtb.write_hits                          11                       # DTB write hits
system.cpu.dtb.write_misses                         0                       # DTB write misses
system.cpu.dtb.write_acv                            0                       # DTB write access violations
system.cpu.dtb.write_accesses                      11                       # DTB write accesses
system.cpu.dtb.data_hits                           14                       # DTB hits
system.cpu.dtb.data_misses                          0                       # DTB misses
system.cpu.dtb.data_acv                             0                       # DTB access violations
system.cpu.dtb.data_accesses                       14                       # DTB accesses
system.cpu.itb.fetch_hits                           6                       # ITB hits
system.cpu.itb.fetch_misses                         0                       # ITB misses
system.cpu.itb.fetch_acv                            0                       # ITB acv
system.cpu.itb.fetch_accesses                       6                       # ITB accesses
system.cpu.itb.read_hits                            0                       # DTB read hits
system.cpu.itb.read_misses                          0                       # DTB read misses
system.cpu.itb.read_acv                             0                       # DTB read access violations
system.cpu.itb.read_accesses                        0                       # DTB read accesses
system.cpu.itb.write_hits                           0                       # DTB write hits
system.cpu.itb.write_misses                         0                       # DTB write misses
system.cpu.itb.write_acv                            0                       # DTB write access violations
system.cpu.itb.write_accesses                       0                       # DTB write accesses
system.cpu.itb.data_hits                            0                       # DTB hits
system.cpu.itb.data_misses                          0                       # DTB misses
system.cpu.itb.data_acv                             0                       # DTB access violations
system.cpu.itb.data_accesses                        0                       # DTB accesses
system.cpu.workload.num_syscalls                    0                       # Number of system calls
system.cpu.pwrStateResidencyTicks::ON    1115039470041                       # Cumulative time (in ticks) in various power states
system.cpu.numCycles                             1124                       # number of cpu cycles simulated
system.cpu.numWorkItemsStarted                      0                       # number of work items this cpu started
system.cpu.numWorkItemsCompleted                    0                       # number of work items this cpu completed
system.cpu.fetch.icacheStallCycles                 63                       # Number of cycles fetch is stalled on an Icache miss
system.cpu.fetch.Insts                             31                       # Number of instructions fetch has processed
system.cpu.fetch.Branches                           3                       # Number of branches that fetch encountered
system.cpu.fetch.Cycles                             5                       # Number of cycles fetch has run and was not squashing or blocked
system.cpu.fetch.SquashCycles                       5                       # Number of cycles fetch has spent squashing
system.cpu.fetch.PendingDrainCycles                 8                       # Number of cycles fetch has spent waiting on pipes to drain
system.cpu.fetch.CacheLines                         6                       # Number of cache lines fetched
system.cpu.fetch.IcacheSquashes                     3                       # Number of outstanding Icache misses that were squashed
system.cpu.fetch.rateDist::samples                 78                       # Number of instructions fetched each cycle (Total)
system.cpu.fetch.rateDist::mean              0.397436                       # Number of instructions fetched each cycle (Total)
system.cpu.fetch.rateDist::stdev             1.646245                       # Number of instructions fetched each cycle (Total)
system.cpu.fetch.rateDist::underflows               0      0.00%      0.00% # Number of instructions fetched each cycle (Total)
system.cpu.fetch.rateDist::0                       73     93.59%     93.59% # Number of instructions fetched each cycle (Total)
system.cpu.fetch.rateDist::1                        0      0.00%     93.59% # Number of instructions fetched each cycle (Total)
system.cpu.fetch.rateDist::2                        1      1.28%     94.87% # Number of instructions fetched each cycle (Total)
system.cpu.fetch.rateDist::3                        0      0.00%     94.87% # Number of instructions fetched each cycle (Total)
system.cpu.fetch.rateDist::4                        0      0.00%     94.87% # Number of instructions fetched each cycle (Total)
system.cpu.fetch.rateDist::5                        1      1.28%     96.15% # Number of instructions fetched each cycle (Total)
[...]
system.switch_cpus_1.iq.int_inst_queue_writes    350256641                       # Number of integer instruction queue writes
system.switch_cpus_1.iq.int_inst_queue_wakeup_accesses    240855107                       # Number of integer instruction queue wakeup accesses
system.switch_cpus_1.iq.fp_inst_queue_reads      4181980                       # Number of floating instruction queue reads
system.switch_cpus_1.iq.fp_inst_queue_writes      2881058                       # Number of floating instruction queue writes
system.switch_cpus_1.iq.fp_inst_queue_wakeup_accesses      1991428                       # Number of floating instruction queue wakeup accesses
system.switch_cpus_1.iq.int_alu_accesses    258329103                       # Number of integer alu accesses
system.switch_cpus_1.iq.fp_alu_accesses       2117009                       # Number of floating point alu accesses
system.switch_cpus_1.iew.lsq.thread0.forwLoads      2610735                       # Number of loads that had data forwarded from stores
system.switch_cpus_1.iew.lsq.thread0.invAddrLoads            0                       # Number of loads ignored due to an invalid address
system.switch_cpus_1.iew.lsq.thread0.squashedLoads     17963697                       # Number of loads squashed
system.switch_cpus_1.iew.lsq.thread0.ignoredResponses        30989                       # Number of memory responses ignored because the instruction is squashed
system.switch_cpus_1.iew.lsq.thread0.memOrderViolation        34951                       # Number of memory ordering violations
system.switch_cpus_1.iew.lsq.thread0.squashedStores      5628094                       # Number of stores squashed
system.switch_cpus_1.iew.lsq.thread0.invAddrSwpfs            0                       # Number of software prefetches ignored due to an invalid address
system.switch_cpus_1.iew.lsq.thread0.blockedLoads            0                       # Number of blocked loads due to partial load-store forwarding
system.switch_cpus_1.iew.lsq.thread0.rescheduledLoads         9471                       # Number of loads that were rescheduled
system.switch_cpus_1.iew.lsq.thread0.cacheBlocked      1494332                       # Number of times an access to memory failed due to the cache being blocked
system.switch_cpus_1.iew.iewIdleCycles              0                       # Number of cycles IEW is idle
system.switch_cpus_1.iew.iewSquashCycles      3779909                       # Number of cycles IEW is squashing
system.switch_cpus_1.iew.iewBlockCycles      10729780                       # Number of cycles IEW is blocking
system.switch_cpus_1.iew.iewUnblockCycles      2227270                       # Number of cycles IEW is unblocking
system.switch_cpus_1.iew.iewDispatchedInsts    283390677                       # Number of instructions dispatched to IQ
system.switch_cpus_1.iew.iewDispSquashedInsts      1401921                       # Number of squashed instructions skipped by dispatch
system.switch_cpus_1.iew.iewDispLoadInsts     62085451                       # Number of dispatched load instructions
system.switch_cpus_1.iew.iewDispStoreInsts     27927939                       # Number of dispatched store instructions
system.switch_cpus_1.iew.iewDispNonSpecInsts          179                       # Number of dispatched non-speculative instructions
system.switch_cpus_1.iew.iewIQFullEvents        25059                       # Number of times the IQ has become full, causing a stall
system.switch_cpus_1.iew.iewLSQFullEvents      2156037                       # Number of times the LSQ has become full, causing a stall
system.switch_cpus_1.iew.memOrderViolationEvents        34951                       # Number of memory order violations
system.switch_cpus_1.iew.predictedTakenIncorrect      2205829                       # Number of branches that were predicted taken incorrectly
system.switch_cpus_1.iew.predictedNotTakenIncorrect      1990885                       # Number of branches that were predicted not taken incorrectly
system.switch_cpus_1.iew.branchMispredicts      4196714                       # Number of branch mispredicts detected at execute
system.switch_cpus_1.iew.iewExecutedInsts    248922312                       # Number of executed instructions
system.switch_cpus_1.iew.iewExecLoadInsts     57854482                       # Number of load instructions executed
system.switch_cpus_1.iew.iewExecSquashedInsts      6186779                       # Number of squashed instructions skipped in execute
system.switch_cpus_1.iew.exec_swp                   0                       # number of swp insts executed
system.switch_cpus_1.iew.exec_nop             6837931                       # number of nop insts executed
system.switch_cpus_1.iew.exec_refs           83062209                       # number of memory reference insts executed
system.switch_cpus_1.iew.exec_branches       36324522                       # Number of branches executed
system.switch_cpus_1.iew.exec_stores         25207727                       # Number of stores executed
system.switch_cpus_1.iew.exec_rate           1.414336                       # Inst execution rate
system.switch_cpus_1.iew.wb_sent            244471224                       # cumulative count of insts sent to commit
system.switch_cpus_1.iew.wb_count           242846535                       # cumulative count of insts written-back
system.switch_cpus_1.iew.wb_producers       136859282                       # num instructions producing a value
system.switch_cpus_1.iew.wb_consumers       173146546                       # num instructions consuming a value
system.switch_cpus_1.iew.wb_rate             1.379814                       # insts written-back per cycle
system.switch_cpus_1.iew.wb_fanout           0.790425                       # average fanout of values written-back
system.switch_cpus_1.commit.commitSquashedInsts     77065540                       # The number of squashed insts skipped by commit
system.switch_cpus_1.commit.commitNonSpecStalls          176                       # The number of times commit has been forced to stall to communicate backwards
system.switch_cpus_1.commit.branchMispredicts      3686326                       # The number of times a branch was mispredicted
system.switch_cpus_1.commit.committed_per_cycle::samples    156250744                       # Number of insts commited each cycle
system.switch_cpus_1.commit.committed_per_cycle::mean     1.314254                       # Number of insts commited each cycle
system.switch_cpus_1.commit.committed_per_cycle::stdev     2.368901                       # Number of insts commited each cycle
system.switch_cpus_1.commit.committed_per_cycle::underflows            0      0.00%      0.00% # Number of insts commited each cycle
system.switch_cpus_1.commit.committed_per_cycle::0     95021223     60.81%     60.81% # Number of insts commited each cycle
system.switch_cpus_1.commit.committed_per_cycle::1     25375310     16.24%     77.05% # Number of insts commited each cycle
system.switch_cpus_1.commit.committed_per_cycle::2      8763873      5.61%     82.66% # Number of insts commited each cycle
system.switch_cpus_1.commit.committed_per_cycle::3      5226375      3.34%     86.01% # Number of insts commited each cycle
system.switch_cpus_1.commit.committed_per_cycle::4      3426027      2.19%     88.20% # Number of insts commited each cycle
system.switch_cpus_1.commit.committed_per_cycle::5      2722241      1.74%     89.94% # Number of insts commited each cycle
system.switch_cpus_1.commit.committed_per_cycle::6      2310774      1.48%     91.42% # Number of insts commited each cycle
system.switch_cpus_1.commit.committed_per_cycle::7      1648399      1.05%     92.48% # Number of insts commited each cycle
system.switch_cpus_1.commit.committed_per_cycle::8     11756522      7.52%    100.00% # Number of insts commited each cycle
system.switch_cpus_1.commit.committed_per_cycle::overflows            0      0.00%    100.00% # Number of insts commited each cycle
system.switch_cpus_1.commit.committed_per_cycle::min_value            0                       # Number of insts commited each cycle
system.switch_cpus_1.commit.committed_per_cycle::max_value            8                       # Number of insts commited each cycle
system.switch_cpus_1.commit.committed_per_cycle::total    156250744                       # Number of insts commited each cycle
system.switch_cpus_1.commit.committedInsts    205353107                       # Number of instructions committed
system.switch_cpus_1.commit.committedOps    205353107                       # Number of ops (including micro ops) committed
system.switch_cpus_1.commit.swp_count               0                       # Number of s/w prefetches committed
system.switch_cpus_1.commit.refs             66421579                       # Number of memory references committed
system.switch_cpus_1.commit.loads            44121734                       # Number of loads committed
system.switch_cpus_1.commit.membars                88                       # Number of memory barriers committed
system.switch_cpus_1.commit.branches         30359423                       # Number of branches committed
system.switch_cpus_1.commit.fp_insts          1786208                       # Number of committed floating point instructions.
system.switch_cpus_1.commit.int_insts       197426184                       # Number of committed integer instructions.
system.switch_cpus_1.commit.function_calls      1752736                       # Number of function calls committed.
system.switch_cpus_1.commit.op_class_0::No_OpClass      5447375      2.65%      2.65% # Class of committed instruction
system.switch_cpus_1.commit.op_class_0::IntAlu    132113930     64.34%     66.99% # Class of committed instruction
system.switch_cpus_1.commit.op_class_0::IntMult        79596      0.04%     67.03% # Class of committed instruction
system.switch_cpus_1.commit.op_class_0::IntDiv            0      0.00%     67.03% # Class of committed instruction
system.switch_cpus_1.commit.op_class_0::FloatAdd       635244      0.31%     67.34% # Class of committed instruction
system.switch_cpus_1.commit.op_class_0::FloatCmp       335099      0.16%     67.50% # Class of committed instruction
system.switch_cpus_1.commit.op_class_0::FloatCvt       272825      0.13%     67.63% # Class of committed instruction
system.switch_cpus_1.commit.op_class_0::FloatMult            0      0.00%     67.63% # Class of committed instruction
system.switch_cpus_1.commit.op_class_0::FloatMultAcc            0      0.00%     67.63% # Class of committed instruction
system.switch_cpus_1.commit.op_class_0::FloatDiv        47371      0.02%     67.65% # Class of committed instruction
system.switch_cpus_1.commit.op_class_0::FloatMisc            0      0.00%     67.65% # Class of committed instruction
system.switch_cpus_1.commit.op_class_0::FloatSqrt            0      0.00%     67.65% # Class of committed instruction
system.switch_cpus_1.commit.op_class_0::SimdAdd            0      0.00%     67.65% # Class of committed instruction
system.switch_cpus_1.commit.op_class_0::SimdAddAcc            0      0.00%     67.65% # Class of committed instruction
system.switch_cpus_1.commit.op_class_0::SimdAlu            0      0.00%     67.65% # Class of committed instruction
system.switch_cpus_1.commit.op_class_0::SimdCmp            0      0.00%     67.65% # Class of committed instruction
system.switch_cpus_1.commit.op_class_0::SimdCvt            0      0.00%     67.65% # Class of committed instruction
system.switch_cpus_1.commit.op_class_0::SimdMisc            0      0.00%     67.65% # Class of committed instruction
system.switch_cpus_1.commit.op_class_0::SimdMult            0      0.00%     67.65% # Class of committed instruction
system.switch_cpus_1.commit.op_class_0::SimdMultAcc            0      0.00%     67.65% # Class of committed instruction
system.switch_cpus_1.commit.op_class_0::SimdShift            0      0.00%     67.65% # Class of committed instruction
system.switch_cpus_1.commit.op_class_0::SimdShiftAcc            0      0.00%     67.65% # Class of committed instruction
system.switch_cpus_1.commit.op_class_0::SimdSqrt            0      0.00%     67.65% # Class of committed instruction
system.switch_cpus_1.commit.op_class_0::SimdFloatAdd            0      0.00%     67.65% # Class of committed instruction
system.switch_cpus_1.commit.op_class_0::SimdFloatAlu            0      0.00%     67.65% # Class of committed instruction
system.switch_cpus_1.commit.op_class_0::SimdFloatCmp            0      0.00%     67.65% # Class of committed instruction
system.switch_cpus_1.commit.op_class_0::SimdFloatCvt            0      0.00%     67.65% # Class of committed instruction
system.switch_cpus_1.commit.op_class_0::SimdFloatDiv            0      0.00%     67.65% # Class of committed instruction
system.switch_cpus_1.commit.op_class_0::SimdFloatMisc            0      0.00%     67.65% # Class of committed instruction
system.switch_cpus_1.commit.op_class_0::SimdFloatMult            0      0.00%     67.65% # Class of committed instruction
system.switch_cpus_1.commit.op_class_0::SimdFloatMultAcc            0      0.00%     67.65% # Class of committed instruction
system.switch_cpus_1.commit.op_class_0::SimdFloatSqrt            0      0.00%     67.65% # Class of committed instruction
system.switch_cpus_1.commit.op_class_0::MemRead     43815278     21.34%     88.99% # Class of committed instruction
system.switch_cpus_1.commit.op_class_0::MemWrite     22110720     10.77%     99.76% # Class of committed instruction
system.switch_cpus_1.commit.op_class_0::FloatMemRead       306544      0.15%     99.91% # Class of committed instruction
system.switch_cpus_1.commit.op_class_0::FloatMemWrite       189125      0.09%    100.00% # Class of committed instruction
system.switch_cpus_1.commit.op_class_0::IprAccess            0      0.00%    100.00% # Class of committed instruction
system.switch_cpus_1.commit.op_class_0::InstPrefetch            0      0.00%    100.00% # Class of committed instruction
system.switch_cpus_1.commit.op_class_0::total    205353107                       # Class of committed instruction
system.switch_cpus_1.commit.bw_lim_events     11756522                       # number cycles where commit BW limit reached
system.switch_cpus_1.rob.rob_reads          426022382                       # The number of ROB reads
system.switch_cpus_1.rob.rob_writes         576775070                       # The number of ROB writes
system.switch_cpus_1.timesIdled               1010541                       # Number of times that the entire CPU went into an idle state and unscheduled itself
system.switch_cpus_1.idleCycles               7895220                       # Total number of cycles that the CPU has spent unscheduled due to idling
system.switch_cpus_1.committedInsts         200000006                       # Number of Instructions Simulated
system.switch_cpus_1.committedOps           200000006                       # Number of Ops (including micro ops) Simulated
system.switch_cpus_1.cpi                     0.879997                       # CPI: Cycles Per Instruction
system.switch_cpus_1.cpi_total               0.879997                       # CPI: Total CPI of All Threads
system.switch_cpus_1.ipc                     1.136367                       # IPC: Instructions Per Cycle
system.switch_cpus_1.ipc_total               1.136367                       # IPC: Total IPC of All Threads
system.switch_cpus_1.int_regfile_reads      333934857                       # number of integer regfile reads
system.switch_cpus_1.int_regfile_writes     183306970                       # number of integer regfile writes
system.switch_cpus_1.fp_regfile_reads         2122390                       # number of floating regfile reads
system.switch_cpus_1.fp_regfile_writes        1274619                       # number of floating regfile writes
system.switch_cpus_1.misc_regfile_reads         94472                       # number of misc regfile reads
system.switch_cpus_1.misc_regfile_writes        47313                       # number of misc regfile writes
system.tol3bus.snoop_filter.tot_requests      2928952                       # Total number of requests made to the snoop filter.
system.tol3bus.snoop_filter.hit_single_requests      1462437                       # Number of requests hitting in the snoop filter with a single holder of the requested data.
system.tol3bus.snoop_filter.hit_multi_requests            0                       # Number of requests hitting in the snoop filter with multiple (>1) holders of the requested data.
system.tol3bus.snoop_filter.tot_snoops           1082                       # Total number of snoops made to the snoop filter.
system.tol3bus.snoop_filter.hit_single_snoops         1082                       # Number of snoops hitting in the snoop filter with a single holder of the requested data.
system.tol3bus.snoop_filter.hit_multi_snoops            0                       # Number of snoops hitting in the snoop filter with multiple (>1) holders of the requested data.
system.tol3bus.pwrStateResidencyTicks::UNDEFINED 18768380860971                       # Cumulative time (in ticks) in various power states
system.tol3bus.trans_dist::ReadResp           1040692                       # Transaction distribution
system.tol3bus.trans_dist::WritebackDirty      1015756                       # Transaction distribution
system.tol3bus.trans_dist::CleanEvict          680391                       # Transaction distribution
system.tol3bus.trans_dist::ReadExReq           425823                       # Transaction distribution
system.tol3bus.trans_dist::ReadExResp          425823                       # Transaction distribution
system.tol3bus.trans_dist::ReadSharedReq      1040692                       # Transaction distribution
system.tol3bus.pkt_count_system.cpu.l2.mem_side::system.l3.cpu_side      4395467                       # Packet count per connected master and slave (bytes)
system.tol3bus.pkt_size_system.cpu.l2.mem_side::system.l3.cpu_side    146988352                       # Cumulative packet size per connected master and slave (bytes)
system.tol3bus.snoops                          233710                       # Total snoops (count)
system.tol3bus.snoopTraffic                  11876992                       # Total snoop traffic (bytes)
system.tol3bus.snoop_fanout::samples          1700225                       # Request fanout histogram
system.tol3bus.snoop_fanout::mean            0.000636                       # Request fanout histogram
system.tol3bus.snoop_fanout::stdev           0.025219                       # Request fanout histogram
system.tol3bus.snoop_fanout::underflows             0      0.00%      0.00% # Request fanout histogram
system.tol3bus.snoop_fanout::0                1699143     99.94%     99.94% # Request fanout histogram
system.tol3bus.snoop_fanout::1                   1082      0.06%    100.00% # Request fanout histogram
system.tol3bus.snoop_fanout::overflows              0      0.00%    100.00% # Request fanout histogram
system.tol3bus.snoop_fanout::min_value              0                       # Request fanout histogram
system.tol3bus.snoop_fanout::max_value              1                       # Request fanout histogram
system.tol3bus.snoop_fanout::total            1700225                       # Request fanout histogram
system.tol3bus.reqLayer0.occupancy         1251790290                       # Layer occupancy (ticks)
system.tol3bus.reqLayer0.utilization              0.1                       # Layer utilization (%)
system.tol3bus.respLayer0.occupancy         976698990                       # Layer occupancy (ticks)
system.tol3bus.respLayer0.utilization             0.1                       # Layer utilization (%)

---------- End Simulation Statistics   ----------
