
---------- Begin Simulation Statistics ----------
sim_seconds                                  1.780251                       # Number of seconds simulated
sim_ticks                                1780251487479                       # Number of ticks simulated
final_tick                               734732692041465                       # Number of ticks from beginning of simulation (restored from checkpoints and never reset)
sim_freq                                 1000000000000                       # Frequency of simulated ticks
host_inst_rate                                 371605                       # Simulator instruction rate (inst/s)
host_op_rate                                   371605                       # Simulator op (including micro ops) rate (op/s)
host_tick_rate                              551292404                       # Simulator tick rate (ticks/s)
host_mem_usage                                2391044                       # Number of bytes of host memory used
host_seconds                                  3229.23                       # Real time elapsed on the host
sim_insts                                  1200000012                       # Number of instructions simulated
sim_ops                                    1200000012                       # Number of ops (including micro ops) simulated
system.voltage_domain.voltage                       1                       # Voltage in Volts
system.clk_domain.clock                          1000                       # Clock period in ticks
system.mem_ctrls0.pwrStateResidencyTicks::UNDEFINED 734732692041465                       # Cumulative time (in ticks) in various power states
system.mem_ctrls0.bytes_read::cpu.inst            128                       # Number of bytes read from this memory
system.mem_ctrls0.bytes_read::cpu.data            128                       # Number of bytes read from this memory
system.mem_ctrls0.bytes_read::switch_cpus.inst       202304                       # Number of bytes read from this memory
system.mem_ctrls0.bytes_read::switch_cpus.data     54491264                       # Number of bytes read from this memory
system.mem_ctrls0.bytes_read::switch_cpus_1.inst        46720                       # Number of bytes read from this memory
system.mem_ctrls0.bytes_read::switch_cpus_1.data     15139648                       # Number of bytes read from this memory
system.mem_ctrls0.bytes_read::total          69880192                       # Number of bytes read from this memory
system.mem_ctrls0.bytes_inst_read::cpu.inst          128                       # Number of instructions bytes read from this memory
system.mem_ctrls0.bytes_inst_read::switch_cpus.inst       202304                       # Number of instructions bytes read from this memory
system.mem_ctrls0.bytes_inst_read::switch_cpus_1.inst        46720                       # Number of instructions bytes read from this memory
system.mem_ctrls0.bytes_inst_read::total       249152                       # Number of instructions bytes read from this memory
system.mem_ctrls0.bytes_written::writebacks      5023680                       # Number of bytes written to this memory
system.mem_ctrls0.bytes_written::total        5023680                       # Number of bytes written to this memory
system.mem_ctrls0.num_reads::cpu.inst               2                       # Number of read requests responded to by this memory
system.mem_ctrls0.num_reads::cpu.data               2                       # Number of read requests responded to by this memory
system.mem_ctrls0.num_reads::switch_cpus.inst         3161                       # Number of read requests responded to by this memory
system.mem_ctrls0.num_reads::switch_cpus.data       851426                       # Number of read requests responded to by this memory
system.mem_ctrls0.num_reads::switch_cpus_1.inst          730                       # Number of read requests responded to by this memory
system.mem_ctrls0.num_reads::switch_cpus_1.data       236557                       # Number of read requests responded to by this memory
system.mem_ctrls0.num_reads::total            1091878                       # Number of read requests responded to by this memory
system.mem_ctrls0.num_writes::writebacks        78495                       # Number of write requests responded to by this memory
system.mem_ctrls0.num_writes::total             78495                       # Number of write requests responded to by this memory
system.mem_ctrls0.bw_read::cpu.inst                72                       # Total read bandwidth from this memory (bytes/s)
system.mem_ctrls0.bw_read::cpu.data                72                       # Total read bandwidth from this memory (bytes/s)
system.mem_ctrls0.bw_read::switch_cpus.inst       113638                       # Total read bandwidth from this memory (bytes/s)
system.mem_ctrls0.bw_read::switch_cpus.data     30608745                       # Total read bandwidth from this memory (bytes/s)
system.mem_ctrls0.bw_read::switch_cpus_1.inst        26243                       # Total read bandwidth from this memory (bytes/s)
system.mem_ctrls0.bw_read::switch_cpus_1.data      8504219                       # Total read bandwidth from this memory (bytes/s)
system.mem_ctrls0.bw_read::total             39252989                       # Total read bandwidth from this memory (bytes/s)
system.mem_ctrls0.bw_inst_read::cpu.inst           72                       # Instruction read bandwidth from this memory (bytes/s)
system.mem_ctrls0.bw_inst_read::switch_cpus.inst       113638                       # Instruction read bandwidth from this memory (bytes/s)
system.mem_ctrls0.bw_inst_read::switch_cpus_1.inst        26243                       # Instruction read bandwidth from this memory (bytes/s)
system.mem_ctrls0.bw_inst_read::total          139953                       # Instruction read bandwidth from this memory (bytes/s)
system.mem_ctrls0.bw_write::writebacks        2821893                       # Write bandwidth from this memory (bytes/s)
system.mem_ctrls0.bw_write::total             2821893                       # Write bandwidth from this memory (bytes/s)
system.mem_ctrls0.bw_total::writebacks        2821893                       # Total bandwidth to/from this memory (bytes/s)
system.mem_ctrls0.bw_total::cpu.inst               72                       # Total bandwidth to/from this memory (bytes/s)
system.mem_ctrls0.bw_total::cpu.data               72                       # Total bandwidth to/from this memory (bytes/s)
system.mem_ctrls0.bw_total::switch_cpus.inst       113638                       # Total bandwidth to/from this memory (bytes/s)
system.mem_ctrls0.bw_total::switch_cpus.data     30608745                       # Total bandwidth to/from this memory (bytes/s)
system.mem_ctrls0.bw_total::switch_cpus_1.inst        26243                       # Total bandwidth to/from this memory (bytes/s)
system.mem_ctrls0.bw_total::switch_cpus_1.data      8504219                       # Total bandwidth to/from this memory (bytes/s)
system.mem_ctrls0.bw_total::total            42074882                       # Total bandwidth to/from this memory (bytes/s)
system.mem_ctrls0.readReqs                    1091878                       # Number of read requests accepted
system.mem_ctrls0.writeReqs                     78495                       # Number of write requests accepted
system.mem_ctrls0.readBursts                  1091878                       # Number of DRAM read bursts, including those serviced by the write queue
system.mem_ctrls0.writeBursts                   78495                       # Number of DRAM write bursts, including those merged in the write queue
system.mem_ctrls0.bytesReadDRAM              69445184                       # Total number of bytes read from DRAM
system.mem_ctrls0.bytesReadWrQ                 435008                       # Total number of bytes read from write queue
system.mem_ctrls0.bytesWritten                5012160                       # Total number of bytes written to DRAM
system.mem_ctrls0.bytesReadSys               69880192                       # Total read bytes from the system interface side
system.mem_ctrls0.bytesWrittenSys             5023680                       # Total written bytes from the system interface side
system.mem_ctrls0.servicedByWrQ                  6797                       # Number of DRAM read bursts serviced by the write queue
system.mem_ctrls0.mergedWrBursts                  153                       # Number of DRAM write bursts merged with an existing one
system.mem_ctrls0.neitherReadNorWriteReqs            0                       # Number of requests that are neither read nor write
system.mem_ctrls0.perBankRdBursts::0            88347                       # Per bank write bursts
system.mem_ctrls0.perBankRdBursts::1            96812                       # Per bank write bursts
system.mem_ctrls0.perBankRdBursts::2            82675                       # Per bank write bursts
system.mem_ctrls0.perBankRdBursts::3            53063                       # Per bank write bursts
system.mem_ctrls0.perBankRdBursts::4            61643                       # Per bank write bursts
system.mem_ctrls0.perBankRdBursts::5            51238                       # Per bank write bursts
system.mem_ctrls0.perBankRdBursts::6            44031                       # Per bank write bursts
system.mem_ctrls0.perBankRdBursts::7            87400                       # Per bank write bursts
system.mem_ctrls0.perBankRdBursts::8            81106                       # Per bank write bursts
system.mem_ctrls0.perBankRdBursts::9            82512                       # Per bank write bursts
system.mem_ctrls0.perBankRdBursts::10           70156                       # Per bank write bursts
system.mem_ctrls0.perBankRdBursts::11           46180                       # Per bank write bursts
system.mem_ctrls0.perBankRdBursts::12           58766                       # Per bank write bursts
system.mem_ctrls0.perBankRdBursts::13           54250                       # Per bank write bursts
system.mem_ctrls0.perBankRdBursts::14           42993                       # Per bank write bursts
system.mem_ctrls0.perBankRdBursts::15           83909                       # Per bank write bursts
system.mem_ctrls0.perBankWrBursts::0             6819                       # Per bank write bursts
system.mem_ctrls0.perBankWrBursts::1             7675                       # Per bank write bursts
system.mem_ctrls0.perBankWrBursts::2             7260                       # Per bank write bursts
system.mem_ctrls0.perBankWrBursts::3             3952                       # Per bank write bursts
system.mem_ctrls0.perBankWrBursts::4             3393                       # Per bank write bursts
system.mem_ctrls0.perBankWrBursts::5             3093                       # Per bank write bursts
system.mem_ctrls0.perBankWrBursts::6             1626                       # Per bank write bursts
system.mem_ctrls0.perBankWrBursts::7             2172                       # Per bank write bursts
system.mem_ctrls0.perBankWrBursts::8             1797                       # Per bank write bursts
system.mem_ctrls0.perBankWrBursts::9             4360                       # Per bank write bursts
system.mem_ctrls0.perBankWrBursts::10            7062                       # Per bank write bursts
system.mem_ctrls0.perBankWrBursts::11            5052                       # Per bank write bursts
system.mem_ctrls0.perBankWrBursts::12            6537                       # Per bank write bursts
system.mem_ctrls0.perBankWrBursts::13            6291                       # Per bank write bursts
system.mem_ctrls0.perBankWrBursts::14            4711                       # Per bank write bursts
system.mem_ctrls0.perBankWrBursts::15            6515                       # Per bank write bursts
system.mem_ctrls0.numRdRetry                        0                       # Number of times read queue was full causing retry
system.mem_ctrls0.numWrRetry                        0                       # Number of times write queue was full causing retry
system.mem_ctrls0.totGap                 1780242119029                       # Total gap between requests
system.mem_ctrls0.readPktSize::0                    0                       # Read request sizes (log2)
system.mem_ctrls0.readPktSize::1                    0                       # Read request sizes (log2)
system.mem_ctrls0.readPktSize::2                    0                       # Read request sizes (log2)
system.mem_ctrls0.readPktSize::3                    0                       # Read request sizes (log2)
system.mem_ctrls0.readPktSize::4                    0                       # Read request sizes (log2)
system.mem_ctrls0.readPktSize::5                    0                       # Read request sizes (log2)
system.mem_ctrls0.readPktSize::6              1091878                       # Read request sizes (log2)
system.mem_ctrls0.writePktSize::0                   0                       # Write request sizes (log2)
system.mem_ctrls0.writePktSize::1                   0                       # Write request sizes (log2)
system.mem_ctrls0.writePktSize::2                   0                       # Write request sizes (log2)
system.mem_ctrls0.writePktSize::3                   0                       # Write request sizes (log2)
system.mem_ctrls0.writePktSize::4                   0                       # Write request sizes (log2)
system.mem_ctrls0.writePktSize::5                   0                       # Write request sizes (log2)
system.mem_ctrls0.writePktSize::6               78495                       # Write request sizes (log2)
system.mem_ctrls0.rdQLenPdf::0                1041439                       # What read queue length does an incoming req see
system.mem_ctrls0.rdQLenPdf::1                  40520                       # What read queue length does an incoming req see
system.mem_ctrls0.rdQLenPdf::2                   2921                       # What read queue length does an incoming req see
system.mem_ctrls0.rdQLenPdf::3                    201                       # What read queue length does an incoming req see
system.mem_ctrls0.rdQLenPdf::4                      0                       # What read queue length does an incoming req see
system.mem_ctrls0.rdQLenPdf::5                      0                       # What read queue length does an incoming req see
system.mem_ctrls0.rdQLenPdf::6                      0                       # What read queue length does an incoming req see
system.mem_ctrls0.rdQLenPdf::7                      0                       # What read queue length does an incoming req see
system.mem_ctrls0.rdQLenPdf::8                      0                       # What read queue length does an incoming req see
system.mem_ctrls0.rdQLenPdf::9                      0                       # What read queue length does an incoming req see
system.mem_ctrls0.rdQLenPdf::10                     0                       # What read queue length does an incoming req see
system.mem_ctrls0.rdQLenPdf::11                     0                       # What read queue length does an incoming req see
system.mem_ctrls0.rdQLenPdf::12                     0                       # What read queue length does an incoming req see
system.mem_ctrls0.rdQLenPdf::13                     0                       # What read queue length does an incoming req see
system.mem_ctrls0.rdQLenPdf::14                     0                       # What read queue length does an incoming req see
system.mem_ctrls0.rdQLenPdf::15                     0                       # What read queue length does an incoming req see
system.mem_ctrls0.rdQLenPdf::16                     0                       # What read queue length does an incoming req see
system.mem_ctrls0.rdQLenPdf::17                     0                       # What read queue length does an incoming req see
system.mem_ctrls0.rdQLenPdf::18                     0                       # What read queue length does an incoming req see
system.mem_ctrls0.rdQLenPdf::19                     0                       # What read queue length does an incoming req see
system.mem_ctrls0.rdQLenPdf::20                     0                       # What read queue length does an incoming req see
system.mem_ctrls0.rdQLenPdf::21                     0                       # What read queue length does an incoming req see
system.mem_ctrls0.rdQLenPdf::22                     0                       # What read queue length does an incoming req see
system.mem_ctrls0.rdQLenPdf::23                     0                       # What read queue length does an incoming req see
system.mem_ctrls0.rdQLenPdf::24                     0                       # What read queue length does an incoming req see
system.mem_ctrls0.rdQLenPdf::25                     0                       # What read queue length does an incoming req see
system.mem_ctrls0.rdQLenPdf::26                     0                       # What read queue length does an incoming req see
system.mem_ctrls0.rdQLenPdf::27                     0                       # What read queue length does an incoming req see
system.mem_ctrls0.rdQLenPdf::28                     0                       # What read queue length does an incoming req see
system.mem_ctrls0.rdQLenPdf::29                     0                       # What read queue length does an incoming req see
system.mem_ctrls0.rdQLenPdf::30                     0                       # What read queue length does an incoming req see
system.mem_ctrls0.rdQLenPdf::31                     0                       # What read queue length does an incoming req see
system.mem_ctrls0.wrQLenPdf::0                      2                       # What write queue length does an incoming req see
system.mem_ctrls0.wrQLenPdf::1                      2                       # What write queue length does an incoming req see
system.mem_ctrls0.wrQLenPdf::2                      2                       # What write queue length does an incoming req see
system.mem_ctrls0.wrQLenPdf::3                      2                       # What write queue length does an incoming req see
system.mem_ctrls0.wrQLenPdf::4                      2                       # What write queue length does an incoming req see
system.mem_ctrls0.wrQLenPdf::5                      2                       # What write queue length does an incoming req see
system.mem_ctrls0.wrQLenPdf::6                      2                       # What write queue length does an incoming req see
system.mem_ctrls0.wrQLenPdf::7                      2                       # What write queue length does an incoming req see
system.mem_ctrls0.wrQLenPdf::8                      2                       # What write queue length does an incoming req see
system.mem_ctrls0.wrQLenPdf::9                      2                       # What write queue length does an incoming req see
system.mem_ctrls0.wrQLenPdf::10                     2                       # What write queue length does an incoming req see
system.mem_ctrls0.wrQLenPdf::11                     2                       # What write queue length does an incoming req see
system.mem_ctrls0.wrQLenPdf::12                     2                       # What write queue length does an incoming req see
system.mem_ctrls0.wrQLenPdf::13                     2                       # What write queue length does an incoming req see
system.mem_ctrls0.wrQLenPdf::14                     2                       # What write queue length does an incoming req see
system.mem_ctrls0.wrQLenPdf::15                  4090                       # What write queue length does an incoming req see
system.mem_ctrls0.wrQLenPdf::16                  4123                       # What write queue length does an incoming req see
system.mem_ctrls0.wrQLenPdf::17                  4381                       # What write queue length does an incoming req see
system.mem_ctrls0.wrQLenPdf::18                  4381                       # What write queue length does an incoming req see
system.mem_ctrls0.wrQLenPdf::19                  4383                       # What write queue length does an incoming req see
system.mem_ctrls0.wrQLenPdf::20                  4382                       # What write queue length does an incoming req see
system.mem_ctrls0.wrQLenPdf::21                  4382                       # What write queue length does an incoming req see
system.mem_ctrls0.wrQLenPdf::22                  4381                       # What write queue length does an incoming req see
system.mem_ctrls0.wrQLenPdf::23                  4381                       # What write queue length does an incoming req see
system.mem_ctrls0.wrQLenPdf::24                  4382                       # What write queue length does an incoming req see
system.mem_ctrls0.wrQLenPdf::25                  4383                       # What write queue length does an incoming req see
system.mem_ctrls0.wrQLenPdf::26                  4380                       # What write queue length does an incoming req see
system.mem_ctrls0.wrQLenPdf::27                  4383                       # What write queue length does an incoming req see
system.mem_ctrls0.wrQLenPdf::28                  4378                       # What write queue length does an incoming req see
system.mem_ctrls0.wrQLenPdf::29                  4379                       # What write queue length does an incoming req see
system.mem_ctrls0.wrQLenPdf::30                  4383                       # What write queue length does an incoming req see
system.mem_ctrls0.wrQLenPdf::31                  4380                       # What write queue length does an incoming req see
system.mem_ctrls0.wrQLenPdf::32                  4378                       # What write queue length does an incoming req see
system.mem_ctrls0.wrQLenPdf::33                     2                       # What write queue length does an incoming req see
system.mem_ctrls0.wrQLenPdf::34                     0                       # What write queue length does an incoming req see
system.mem_ctrls0.wrQLenPdf::35                     0                       # What write queue length does an incoming req see
system.mem_ctrls0.wrQLenPdf::36                     0                       # What write queue length does an incoming req see
system.mem_ctrls0.wrQLenPdf::37                     0                       # What write queue length does an incoming req see
system.mem_ctrls0.wrQLenPdf::38                     0                       # What write queue length does an incoming req see
system.mem_ctrls0.wrQLenPdf::39                     0                       # What write queue length does an incoming req see
system.mem_ctrls0.wrQLenPdf::40                     0                       # What write queue length does an incoming req see
system.mem_ctrls0.wrQLenPdf::41                     0                       # What write queue length does an incoming req see
system.mem_ctrls0.wrQLenPdf::42                     0                       # What write queue length does an incoming req see
system.mem_ctrls0.wrQLenPdf::43                     0                       # What write queue length does an incoming req see
system.mem_ctrls0.wrQLenPdf::44                     0                       # What write queue length does an incoming req see
system.mem_ctrls0.wrQLenPdf::45                     0                       # What write queue length does an incoming req see
system.mem_ctrls0.wrQLenPdf::46                     0                       # What write queue length does an incoming req see
system.mem_ctrls0.wrQLenPdf::47                     0                       # What write queue length does an incoming req see
system.mem_ctrls0.wrQLenPdf::48                     0                       # What write queue length does an incoming req see
system.mem_ctrls0.wrQLenPdf::49                     0                       # What write queue length does an incoming req see
system.mem_ctrls0.wrQLenPdf::50                     0                       # What write queue length does an incoming req see
system.mem_ctrls0.wrQLenPdf::51                     0                       # What write queue length does an incoming req see
system.mem_ctrls0.wrQLenPdf::52                     0                       # What write queue length does an incoming req see
system.mem_ctrls0.wrQLenPdf::53                     0                       # What write queue length does an incoming req see
system.mem_ctrls0.wrQLenPdf::54                     0                       # What write queue length does an incoming req see
system.mem_ctrls0.wrQLenPdf::55                     0                       # What write queue length does an incoming req see
system.mem_ctrls0.wrQLenPdf::56                     0                       # What write queue length does an incoming req see
system.mem_ctrls0.wrQLenPdf::57                     0                       # What write queue length does an incoming req see
system.mem_ctrls0.wrQLenPdf::58                     0                       # What write queue length does an incoming req see
system.mem_ctrls0.wrQLenPdf::59                     0                       # What write queue length does an incoming req see
system.mem_ctrls0.wrQLenPdf::60                     0                       # What write queue length does an incoming req see
system.mem_ctrls0.wrQLenPdf::61                     0                       # What write queue length does an incoming req see
system.mem_ctrls0.wrQLenPdf::62                     0                       # What write queue length does an incoming req see
system.mem_ctrls0.wrQLenPdf::63                     0                       # What write queue length does an incoming req see
system.mem_ctrls0.bytesPerActivate::samples       475664                       # Bytes accessed per row activation
system.mem_ctrls0.bytesPerActivate::mean   156.533486                       # Bytes accessed per row activation
system.mem_ctrls0.bytesPerActivate::gmean   115.433490                       # Bytes accessed per row activation
system.mem_ctrls0.bytesPerActivate::stdev   150.597960                       # Bytes accessed per row activation
system.mem_ctrls0.bytesPerActivate::0-127       251574     52.89%     52.89% # Bytes accessed per row activation
system.mem_ctrls0.bytesPerActivate::128-255       119602     25.14%     78.03% # Bytes accessed per row activation
system.mem_ctrls0.bytesPerActivate::256-383        57084     12.00%     90.03% # Bytes accessed per row activation
system.mem_ctrls0.bytesPerActivate::384-511        31159      6.55%     96.58% # Bytes accessed per row activation
system.mem_ctrls0.bytesPerActivate::512-639         7526      1.58%     98.17% # Bytes accessed per row activation
system.mem_ctrls0.bytesPerActivate::640-767         2582      0.54%     98.71% # Bytes accessed per row activation
system.mem_ctrls0.bytesPerActivate::768-895         1668      0.35%     99.06% # Bytes accessed per row activation
system.mem_ctrls0.bytesPerActivate::896-1023         1449      0.30%     99.37% # Bytes accessed per row activation
system.mem_ctrls0.bytesPerActivate::1024-1151         3020      0.63%    100.00% # Bytes accessed per row activation
system.mem_ctrls0.bytesPerActivate::total       475664                       # Bytes accessed per row activation
system.mem_ctrls0.rdPerTurnAround::samples         4379                       # Reads before turning the bus around for writes
system.mem_ctrls0.rdPerTurnAround::mean    247.567253                       # Reads before turning the bus around for writes
system.mem_ctrls0.rdPerTurnAround::gmean   176.515873                       # Reads before turning the bus around for writes
system.mem_ctrls0.rdPerTurnAround::stdev   510.679532                       # Reads before turning the bus around for writes
system.mem_ctrls0.rdPerTurnAround::0-1023         4265     97.40%     97.40% # Reads before turning the bus around for writes
system.mem_ctrls0.rdPerTurnAround::1024-2047          105      2.40%     99.79% # Reads before turning the bus around for writes
system.mem_ctrls0.rdPerTurnAround::2048-3071            8      0.18%     99.98% # Reads before turning the bus around for writes
system.mem_ctrls0.rdPerTurnAround::29696-30719            1      0.02%    100.00% # Reads before turning the bus around for writes
system.mem_ctrls0.rdPerTurnAround::total         4379                       # Reads before turning the bus around for writes
system.mem_ctrls0.wrPerTurnAround::samples         4379                       # Writes before turning the bus around for reads
system.mem_ctrls0.wrPerTurnAround::mean     17.884220                       # Writes before turning the bus around for reads
system.mem_ctrls0.wrPerTurnAround::gmean    17.876636                       # Writes before turning the bus around for reads
system.mem_ctrls0.wrPerTurnAround::stdev     0.511695                       # Writes before turning the bus around for reads
system.mem_ctrls0.wrPerTurnAround::16             260      5.94%      5.94% # Writes before turning the bus around for reads
system.mem_ctrls0.wrPerTurnAround::17              30      0.69%      6.62% # Writes before turning the bus around for reads
system.mem_ctrls0.wrPerTurnAround::18            4056     92.62%     99.25% # Writes before turning the bus around for reads
system.mem_ctrls0.wrPerTurnAround::19              31      0.71%     99.95% # Writes before turning the bus around for reads
system.mem_ctrls0.wrPerTurnAround::20               1      0.02%     99.98% # Writes before turning the bus around for reads
system.mem_ctrls0.wrPerTurnAround::28               1      0.02%    100.00% # Writes before turning the bus around for reads
system.mem_ctrls0.wrPerTurnAround::total         4379                       # Writes before turning the bus around for reads
system.mem_ctrls0.totQLat                 41890615619                       # Total ticks spent queuing
system.mem_ctrls0.totMemAccLat            62235884369                       # Total ticks spent from burst creation until serviced by the DRAM
system.mem_ctrls0.totBusLat                5425405000                       # Total ticks spent in databus transfers
system.mem_ctrls0.avgQLat                    38605.98                       # Average queueing delay per DRAM burst
system.mem_ctrls0.avgBusLat                   5000.00                       # Average bus latency per DRAM burst
system.mem_ctrls0.avgMemAccLat               57355.98                       # Average memory access latency per DRAM burst
system.mem_ctrls0.avgRdBW                       39.01                       # Average DRAM read bandwidth in MiByte/s
system.mem_ctrls0.avgWrBW                        2.82                       # Average achieved write bandwidth in MiByte/s
system.mem_ctrls0.avgRdBWSys                    39.25                       # Average system read bandwidth in MiByte/s
system.mem_ctrls0.avgWrBWSys                     2.82                       # Average system write bandwidth in MiByte/s
system.mem_ctrls0.peakBW                     12800.00                       # Theoretical peak bandwidth in MiByte/s
system.mem_ctrls0.busUtil                        0.33                       # Data bus utilization in percentage
system.mem_ctrls0.busUtilRead                    0.30                       # Data bus utilization in percentage for reads
system.mem_ctrls0.busUtilWrite                   0.02                       # Data bus utilization in percentage for writes
system.mem_ctrls0.avgRdQLen                      1.01                       # Average read queue length when enqueuing
system.mem_ctrls0.avgWrQLen                     24.48                       # Average write queue length when enqueuing
system.mem_ctrls0.readRowHits                  648247                       # Number of row buffer hits during reads
system.mem_ctrls0.writeRowHits                  39485                       # Number of row buffer hits during writes
system.mem_ctrls0.readRowHitRate                59.74                       # Row buffer hit rate for reads
system.mem_ctrls0.writeRowHitRate               50.40                       # Row buffer hit rate for writes
system.mem_ctrls0.avgGap                   1521089.53                       # Average gap between requests
system.mem_ctrls0.pageHitRate                   59.11                       # Row buffer hit rate, read and write combined
system.mem_ctrls0_0.actEnergy              1820635740                       # Energy for activate commands per rank (pJ)
system.mem_ctrls0_0.preEnergy               967690845                       # Energy for precharge commands per rank (pJ)
system.mem_ctrls0_0.readEnergy             4035592260                       # Energy for read commands per rank (pJ)
system.mem_ctrls0_0.writeEnergy             187867800                       # Energy for write commands per rank (pJ)
system.mem_ctrls0_0.refreshEnergy        98569202160.000015                       # Energy for refresh commands per rank (pJ)
system.mem_ctrls0_0.actBackEnergy         28753119900                       # Energy for active background per rank (pJ)
system.mem_ctrls0_0.preBackEnergy          4146161280                       # Energy for precharge background per rank (pJ)
system.mem_ctrls0_0.actPowerDownEnergy   313015801530                       # Energy for active power-down per rank (pJ)
system.mem_ctrls0_0.prePowerDownEnergy   122649954240                       # Energy for precharge power-down per rank (pJ)
system.mem_ctrls0_0.selfRefreshEnergy    181015573065                       # Energy for self refresh per rank (pJ)
system.mem_ctrls0_0.totalEnergy          755200885650                       # Total energy per rank (pJ)
system.mem_ctrls0_0.averagePower           424.210223                       # Core power per rank (mW)
system.mem_ctrls0_0.totalIdleTime        1706300609067                       # Total Idle time Per DRAM Rank
system.mem_ctrls0_0.memoryStateTime::IDLE   6895484125                       # Time in different power states
system.mem_ctrls0_0.memoryStateTime::REF  41839226000                       # Time in different power states
system.mem_ctrls0_0.memoryStateTime::SREF 700472668979                       # Time in different power states
system.mem_ctrls0_0.memoryStateTime::PRE_PDN 319401627532                       # Time in different power states
system.mem_ctrls0_0.memoryStateTime::ACT  25204716086                       # Time in different power states
system.mem_ctrls0_0.memoryStateTime::ACT_PDN 686437764757                       # Time in different power states
system.mem_ctrls0_1.actEnergy              1575605220                       # Energy for activate commands per rank (pJ)
system.mem_ctrls0_1.preEnergy               837454035                       # Energy for precharge commands per rank (pJ)
system.mem_ctrls0_1.readEnergy             3711886080                       # Energy for read commands per rank (pJ)
system.mem_ctrls0_1.writeEnergy             220936500                       # Energy for write commands per rank (pJ)
system.mem_ctrls0_1.refreshEnergy        92384694480.000015                       # Energy for refresh commands per rank (pJ)
system.mem_ctrls0_1.actBackEnergy         27647032620                       # Energy for active background per rank (pJ)
system.mem_ctrls0_1.preBackEnergy          3926143200                       # Energy for precharge background per rank (pJ)
system.mem_ctrls0_1.actPowerDownEnergy   290707989120                       # Energy for active power-down per rank (pJ)
system.mem_ctrls0_1.prePowerDownEnergy   114750756000                       # Energy for precharge power-down per rank (pJ)
system.mem_ctrls0_1.selfRefreshEnergy    197966068980                       # Energy for self refresh per rank (pJ)
system.mem_ctrls0_1.totalEnergy          733763448855                       # Total energy per rank (pJ)
system.mem_ctrls0_1.averagePower           412.168420                       # Core power per rank (mW)
system.mem_ctrls0_1.totalIdleTime        1709318527785                       # Total Idle time Per DRAM Rank
system.mem_ctrls0_1.memoryStateTime::IDLE   6578367720                       # Time in different power states
system.mem_ctrls0_1.memoryStateTime::REF  39218108000                       # Time in different power states
system.mem_ctrls0_1.memoryStateTime::SREF 772972491951                       # Time in different power states
system.mem_ctrls0_1.memoryStateTime::PRE_PDN 298830361223                       # Time in different power states
system.mem_ctrls0_1.memoryStateTime::ACT  25134774696                       # Time in different power states
system.mem_ctrls0_1.memoryStateTime::ACT_PDN 637517383889                       # Time in different power states
system.mem_ctrls1.pwrStateResidencyTicks::UNDEFINED 734732692041465                       # Cumulative time (in ticks) in various power states
system.mem_ctrls1.bytes_read::cpu.inst             64                       # Number of bytes read from this memory
system.mem_ctrls1.bytes_read::cpu.data            192                       # Number of bytes read from this memory
system.mem_ctrls1.bytes_read::switch_cpus.inst       193408                       # Number of bytes read from this memory
system.mem_ctrls1.bytes_read::switch_cpus.data     54366592                       # Number of bytes read from this memory
system.mem_ctrls1.bytes_read::switch_cpus_1.inst        45760                       # Number of bytes read from this memory
system.mem_ctrls1.bytes_read::switch_cpus_1.data     15148160                       # Number of bytes read from this memory
system.mem_ctrls1.bytes_read::total          69754176                       # Number of bytes read from this memory
system.mem_ctrls1.bytes_inst_read::cpu.inst           64                       # Number of instructions bytes read from this memory
system.mem_ctrls1.bytes_inst_read::switch_cpus.inst       193408                       # Number of instructions bytes read from this memory
system.mem_ctrls1.bytes_inst_read::switch_cpus_1.inst        45760                       # Number of instructions bytes read from this memory
system.mem_ctrls1.bytes_inst_read::total       239232                       # Number of instructions bytes read from this memory
system.mem_ctrls1.bytes_written::writebacks      4998464                       # Number of bytes written to this memory
system.mem_ctrls1.bytes_written::total        4998464                       # Number of bytes written to this memory
system.mem_ctrls1.num_reads::cpu.inst               1                       # Number of read requests responded to by this memory
system.mem_ctrls1.num_reads::cpu.data               3                       # Number of read requests responded to by this memory
system.mem_ctrls1.num_reads::switch_cpus.inst         3022                       # Number of read requests responded to by this memory
system.mem_ctrls1.num_reads::switch_cpus.data       849478                       # Number of read requests responded to by this memory
system.mem_ctrls1.num_reads::switch_cpus_1.inst          715                       # Number of read requests responded to by this memory
system.mem_ctrls1.num_reads::switch_cpus_1.data       236690                       # Number of read requests responded to by this memory
system.mem_ctrls1.num_reads::total            1089909                       # Number of read requests responded to by this memory
system.mem_ctrls1.num_writes::writebacks        78101                       # Number of write requests responded to by this memory
system.mem_ctrls1.num_writes::total             78101                       # Number of write requests responded to by this memory
system.mem_ctrls1.bw_read::cpu.inst                36                       # Total read bandwidth from this memory (bytes/s)
system.mem_ctrls1.bw_read::cpu.data               108                       # Total read bandwidth from this memory (bytes/s)
system.mem_ctrls1.bw_read::switch_cpus.inst       108641                       # Total read bandwidth from this memory (bytes/s)
system.mem_ctrls1.bw_read::switch_cpus.data     30538715                       # Total read bandwidth from this memory (bytes/s)
system.mem_ctrls1.bw_read::switch_cpus_1.inst        25704                       # Total read bandwidth from this memory (bytes/s)
system.mem_ctrls1.bw_read::switch_cpus_1.data      8509000                       # Total read bandwidth from this memory (bytes/s)
system.mem_ctrls1.bw_read::total             39182203                       # Total read bandwidth from this memory (bytes/s)
system.mem_ctrls1.bw_inst_read::cpu.inst           36                       # Instruction read bandwidth from this memory (bytes/s)
system.mem_ctrls1.bw_inst_read::switch_cpus.inst       108641                       # Instruction read bandwidth from this memory (bytes/s)
system.mem_ctrls1.bw_inst_read::switch_cpus_1.inst        25704                       # Instruction read bandwidth from this memory (bytes/s)
system.mem_ctrls1.bw_inst_read::total          134381                       # Instruction read bandwidth from this memory (bytes/s)
system.mem_ctrls1.bw_write::writebacks        2807729                       # Write bandwidth from this memory (bytes/s)
system.mem_ctrls1.bw_write::total             2807729                       # Write bandwidth from this memory (bytes/s)
system.mem_ctrls1.bw_total::writebacks        2807729                       # Total bandwidth to/from this memory (bytes/s)
system.mem_ctrls1.bw_total::cpu.inst               36                       # Total bandwidth to/from this memory (bytes/s)
system.mem_ctrls1.bw_total::cpu.data              108                       # Total bandwidth to/from this memory (bytes/s)
system.mem_ctrls1.bw_total::switch_cpus.inst       108641                       # Total bandwidth to/from this memory (bytes/s)
system.mem_ctrls1.bw_total::switch_cpus.data     30538715                       # Total bandwidth to/from this memory (bytes/s)
system.mem_ctrls1.bw_total::switch_cpus_1.inst        25704                       # Total bandwidth to/from this memory (bytes/s)
system.mem_ctrls1.bw_total::switch_cpus_1.data      8509000                       # Total bandwidth to/from this memory (bytes/s)
system.mem_ctrls1.bw_total::total            41989933                       # Total bandwidth to/from this memory (bytes/s)
system.mem_ctrls1.readReqs                    1089909                       # Number of read requests accepted
system.mem_ctrls1.writeReqs                     78101                       # Number of write requests accepted
system.mem_ctrls1.readBursts                  1089909                       # Number of DRAM read bursts, including those serviced by the write queue
system.mem_ctrls1.writeBursts                   78101                       # Number of DRAM write bursts, including those merged in the write queue
system.mem_ctrls1.bytesReadDRAM              69327680                       # Total number of bytes read from DRAM
system.mem_ctrls1.bytesReadWrQ                 426496                       # Total number of bytes read from write queue
system.mem_ctrls1.bytesWritten                4986752                       # Total number of bytes written to DRAM
system.mem_ctrls1.bytesReadSys               69754176                       # Total read bytes from the system interface side
system.mem_ctrls1.bytesWrittenSys             4998464                       # Total written bytes from the system interface side
system.mem_ctrls1.servicedByWrQ                  6664                       # Number of DRAM read bursts serviced by the write queue
system.mem_ctrls1.mergedWrBursts                  155                       # Number of DRAM write bursts merged with an existing one
system.mem_ctrls1.neitherReadNorWriteReqs            0                       # Number of requests that are neither read nor write
system.mem_ctrls1.perBankRdBursts::0            88473                       # Per bank write bursts
system.mem_ctrls1.perBankRdBursts::1            96339                       # Per bank write bursts
system.mem_ctrls1.perBankRdBursts::2            82569                       # Per bank write bursts
system.mem_ctrls1.perBankRdBursts::3            53778                       # Per bank write bursts
system.mem_ctrls1.perBankRdBursts::4            61853                       # Per bank write bursts
system.mem_ctrls1.perBankRdBursts::5            50479                       # Per bank write bursts
system.mem_ctrls1.perBankRdBursts::6            43968                       # Per bank write bursts
system.mem_ctrls1.perBankRdBursts::7            87254                       # Per bank write bursts
system.mem_ctrls1.perBankRdBursts::8            80281                       # Per bank write bursts
system.mem_ctrls1.perBankRdBursts::9            81986                       # Per bank write bursts
system.mem_ctrls1.perBankRdBursts::10           69928                       # Per bank write bursts
system.mem_ctrls1.perBankRdBursts::11           46776                       # Per bank write bursts
system.mem_ctrls1.perBankRdBursts::12           59410                       # Per bank write bursts
system.mem_ctrls1.perBankRdBursts::13           54194                       # Per bank write bursts
system.mem_ctrls1.perBankRdBursts::14           43042                       # Per bank write bursts
system.mem_ctrls1.perBankRdBursts::15           82915                       # Per bank write bursts
system.mem_ctrls1.perBankWrBursts::0             6878                       # Per bank write bursts
system.mem_ctrls1.perBankWrBursts::1             7444                       # Per bank write bursts
system.mem_ctrls1.perBankWrBursts::2             6938                       # Per bank write bursts
system.mem_ctrls1.perBankWrBursts::3             3760                       # Per bank write bursts
system.mem_ctrls1.perBankWrBursts::4             3303                       # Per bank write bursts
system.mem_ctrls1.perBankWrBursts::5             3224                       # Per bank write bursts
system.mem_ctrls1.perBankWrBursts::6             1569                       # Per bank write bursts
system.mem_ctrls1.perBankWrBursts::7             2129                       # Per bank write bursts
system.mem_ctrls1.perBankWrBursts::8             1718                       # Per bank write bursts
system.mem_ctrls1.perBankWrBursts::9             4654                       # Per bank write bursts
system.mem_ctrls1.perBankWrBursts::10            7130                       # Per bank write bursts
system.mem_ctrls1.perBankWrBursts::11            4994                       # Per bank write bursts
system.mem_ctrls1.perBankWrBursts::12            6490                       # Per bank write bursts
system.mem_ctrls1.perBankWrBursts::13            6152                       # Per bank write bursts
system.mem_ctrls1.perBankWrBursts::14            4834                       # Per bank write bursts
system.mem_ctrls1.perBankWrBursts::15            6701                       # Per bank write bursts
system.mem_ctrls1.numRdRetry                        0                       # Number of times read queue was full causing retry
system.mem_ctrls1.numWrRetry                        0                       # Number of times write queue was full causing retry
system.mem_ctrls1.totGap                 1780193215143                       # Total gap between requests
system.mem_ctrls1.readPktSize::0                    0                       # Read request sizes (log2)
system.mem_ctrls1.readPktSize::1                    0                       # Read request sizes (log2)
system.mem_ctrls1.readPktSize::2                    0                       # Read request sizes (log2)
system.mem_ctrls1.readPktSize::3                    0                       # Read request sizes (log2)
system.mem_ctrls1.readPktSize::4                    0                       # Read request sizes (log2)
system.mem_ctrls1.readPktSize::5                    0                       # Read request sizes (log2)
system.mem_ctrls1.readPktSize::6              1089909                       # Read request sizes (log2)
system.mem_ctrls1.writePktSize::0                   0                       # Write request sizes (log2)
system.mem_ctrls1.writePktSize::1                   0                       # Write request sizes (log2)
system.mem_ctrls1.writePktSize::2                   0                       # Write request sizes (log2)
system.mem_ctrls1.writePktSize::3                   0                       # Write request sizes (log2)
system.mem_ctrls1.writePktSize::4                   0                       # Write request sizes (log2)
system.mem_ctrls1.writePktSize::5                   0                       # Write request sizes (log2)
system.mem_ctrls1.writePktSize::6               78101                       # Write request sizes (log2)
system.mem_ctrls1.rdQLenPdf::0                1039211                       # What read queue length does an incoming req see
system.mem_ctrls1.rdQLenPdf::1                  40956                       # What read queue length does an incoming req see
system.mem_ctrls1.rdQLenPdf::2                   2870                       # What read queue length does an incoming req see
system.mem_ctrls1.rdQLenPdf::3                    208                       # What read queue length does an incoming req see
system.mem_ctrls1.rdQLenPdf::4                      0                       # What read queue length does an incoming req see
system.mem_ctrls1.rdQLenPdf::5                      0                       # What read queue length does an incoming req see
system.mem_ctrls1.rdQLenPdf::6                      0                       # What read queue length does an incoming req see
system.mem_ctrls1.rdQLenPdf::7                      0                       # What read queue length does an incoming req see
system.mem_ctrls1.rdQLenPdf::8                      0                       # What read queue length does an incoming req see
system.mem_ctrls1.rdQLenPdf::9                      0                       # What read queue length does an incoming req see
system.mem_ctrls1.rdQLenPdf::10                     0                       # What read queue length does an incoming req see
system.mem_ctrls1.rdQLenPdf::11                     0                       # What read queue length does an incoming req see
system.mem_ctrls1.rdQLenPdf::12                     0                       # What read queue length does an incoming req see
system.mem_ctrls1.rdQLenPdf::13                     0                       # What read queue length does an incoming req see
system.mem_ctrls1.rdQLenPdf::14                     0                       # What read queue length does an incoming req see
system.mem_ctrls1.rdQLenPdf::15                     0                       # What read queue length does an incoming req see
system.mem_ctrls1.rdQLenPdf::16                     0                       # What read queue length does an incoming req see
system.mem_ctrls1.rdQLenPdf::17                     0                       # What read queue length does an incoming req see
system.mem_ctrls1.rdQLenPdf::18                     0                       # What read queue length does an incoming req see
system.mem_ctrls1.rdQLenPdf::19                     0                       # What read queue length does an incoming req see
system.mem_ctrls1.rdQLenPdf::20                     0                       # What read queue length does an incoming req see
system.mem_ctrls1.rdQLenPdf::21                     0                       # What read queue length does an incoming req see
system.mem_ctrls1.rdQLenPdf::22                     0                       # What read queue length does an incoming req see
system.mem_ctrls1.rdQLenPdf::23                     0                       # What read queue length does an incoming req see
system.mem_ctrls1.rdQLenPdf::24                     0                       # What read queue length does an incoming req see
system.mem_ctrls1.rdQLenPdf::25                     0                       # What read queue length does an incoming req see
system.mem_ctrls1.rdQLenPdf::26                     0                       # What read queue length does an incoming req see
system.mem_ctrls1.rdQLenPdf::27                     0                       # What read queue length does an incoming req see
system.mem_ctrls1.rdQLenPdf::28                     0                       # What read queue length does an incoming req see
system.mem_ctrls1.rdQLenPdf::29                     0                       # What read queue length does an incoming req see
system.mem_ctrls1.rdQLenPdf::30                     0                       # What read queue length does an incoming req see
system.mem_ctrls1.rdQLenPdf::31                     0                       # What read queue length does an incoming req see
system.mem_ctrls1.wrQLenPdf::0                      2                       # What write queue length does an incoming req see
system.mem_ctrls1.wrQLenPdf::1                      2                       # What write queue length does an incoming req see
system.mem_ctrls1.wrQLenPdf::2                      2                       # What write queue length does an incoming req see
system.mem_ctrls1.wrQLenPdf::3                      2                       # What write queue length does an incoming req see
system.mem_ctrls1.wrQLenPdf::4                      2                       # What write queue length does an incoming req see
system.mem_ctrls1.wrQLenPdf::5                      2                       # What write queue length does an incoming req see
system.mem_ctrls1.wrQLenPdf::6                      2                       # What write queue length does an incoming req see
system.mem_ctrls1.wrQLenPdf::7                      2                       # What write queue length does an incoming req see
system.mem_ctrls1.wrQLenPdf::8                      2                       # What write queue length does an incoming req see
system.mem_ctrls1.wrQLenPdf::9                      2                       # What write queue length does an incoming req see
system.mem_ctrls1.wrQLenPdf::10                     2                       # What write queue length does an incoming req see
system.mem_ctrls1.wrQLenPdf::11                     2                       # What write queue length does an incoming req see
system.mem_ctrls1.wrQLenPdf::12                     2                       # What write queue length does an incoming req see
system.mem_ctrls1.wrQLenPdf::13                     2                       # What write queue length does an incoming req see
system.mem_ctrls1.wrQLenPdf::14                     2                       # What write queue length does an incoming req see
system.mem_ctrls1.wrQLenPdf::15                  4055                       # What write queue length does an incoming req see
system.mem_ctrls1.wrQLenPdf::16                  4082                       # What write queue length does an incoming req see
system.mem_ctrls1.wrQLenPdf::17                  4359                       # What write queue length does an incoming req see
system.mem_ctrls1.wrQLenPdf::18                  4363                       # What write queue length does an incoming req see
system.mem_ctrls1.wrQLenPdf::19                  4362                       # What write queue length does an incoming req see
system.mem_ctrls1.wrQLenPdf::20                  4360                       # What write queue length does an incoming req see
system.mem_ctrls1.wrQLenPdf::21                  4365                       # What write queue length does an incoming req see
system.mem_ctrls1.wrQLenPdf::22                  4362                       # What write queue length does an incoming req see
system.mem_ctrls1.wrQLenPdf::23                  4361                       # What write queue length does an incoming req see
system.mem_ctrls1.wrQLenPdf::24                  4361                       # What write queue length does an incoming req see
system.mem_ctrls1.wrQLenPdf::25                  4361                       # What write queue length does an incoming req see
system.mem_ctrls1.wrQLenPdf::26                  4359                       # What write queue length does an incoming req see
system.mem_ctrls1.wrQLenPdf::27                  4359                       # What write queue length does an incoming req see
system.mem_ctrls1.wrQLenPdf::28                  4359                       # What write queue length does an incoming req see
system.mem_ctrls1.wrQLenPdf::29                  4360                       # What write queue length does an incoming req see
system.mem_ctrls1.wrQLenPdf::30                  4372                       # What write queue length does an incoming req see
system.mem_ctrls1.wrQLenPdf::31                  4358                       # What write queue length does an incoming req see
system.mem_ctrls1.wrQLenPdf::32                  4358                       # What write queue length does an incoming req see
system.mem_ctrls1.wrQLenPdf::33                     0                       # What write queue length does an incoming req see
system.mem_ctrls1.wrQLenPdf::34                     0                       # What write queue length does an incoming req see
system.mem_ctrls1.wrQLenPdf::35                     0                       # What write queue length does an incoming req see
system.mem_ctrls1.wrQLenPdf::36                     0                       # What write queue length does an incoming req see
system.mem_ctrls1.wrQLenPdf::37                     0                       # What write queue length does an incoming req see
system.mem_ctrls1.wrQLenPdf::38                     0                       # What write queue length does an incoming req see
system.mem_ctrls1.wrQLenPdf::39                     0                       # What write queue length does an incoming req see
system.mem_ctrls1.wrQLenPdf::40                     0                       # What write queue length does an incoming req see
system.mem_ctrls1.wrQLenPdf::41                     0                       # What write queue length does an incoming req see
system.mem_ctrls1.wrQLenPdf::42                     0                       # What write queue length does an incoming req see
system.mem_ctrls1.wrQLenPdf::43                     0                       # What write queue length does an incoming req see
system.mem_ctrls1.wrQLenPdf::44                     0                       # What write queue length does an incoming req see
system.mem_ctrls1.wrQLenPdf::45                     0                       # What write queue length does an incoming req see
system.mem_ctrls1.wrQLenPdf::46                     0                       # What write queue length does an incoming req see
system.mem_ctrls1.wrQLenPdf::47                     0                       # What write queue length does an incoming req see
system.mem_ctrls1.wrQLenPdf::48                     0                       # What write queue length does an incoming req see
system.mem_ctrls1.wrQLenPdf::49                     0                       # What write queue length does an incoming req see
system.mem_ctrls1.wrQLenPdf::50                     0                       # What write queue length does an incoming req see
system.mem_ctrls1.wrQLenPdf::51                     0                       # What write queue length does an incoming req see
system.mem_ctrls1.wrQLenPdf::52                     0                       # What write queue length does an incoming req see
system.mem_ctrls1.wrQLenPdf::53                     0                       # What write queue length does an incoming req see
system.mem_ctrls1.wrQLenPdf::54                     0                       # What write queue length does an incoming req see
system.mem_ctrls1.wrQLenPdf::55                     0                       # What write queue length does an incoming req see
system.mem_ctrls1.wrQLenPdf::56                     0                       # What write queue length does an incoming req see
system.mem_ctrls1.wrQLenPdf::57                     0                       # What write queue length does an incoming req see
system.mem_ctrls1.wrQLenPdf::58                     0                       # What write queue length does an incoming req see
system.mem_ctrls1.wrQLenPdf::59                     0                       # What write queue length does an incoming req see
system.mem_ctrls1.wrQLenPdf::60                     0                       # What write queue length does an incoming req see
system.mem_ctrls1.wrQLenPdf::61                     0                       # What write queue length does an incoming req see
system.mem_ctrls1.wrQLenPdf::62                     0                       # What write queue length does an incoming req see
system.mem_ctrls1.wrQLenPdf::63                     0                       # What write queue length does an incoming req see
system.mem_ctrls1.bytesPerActivate::samples       473257                       # Bytes accessed per row activation
system.mem_ctrls1.bytesPerActivate::mean   157.027645                       # Bytes accessed per row activation
system.mem_ctrls1.bytesPerActivate::gmean   115.727756                       # Bytes accessed per row activation
system.mem_ctrls1.bytesPerActivate::stdev   151.211547                       # Bytes accessed per row activation
system.mem_ctrls1.bytesPerActivate::0-127       249364     52.69%     52.69% # Bytes accessed per row activation
system.mem_ctrls1.bytesPerActivate::128-255       119418     25.23%     77.92% # Bytes accessed per row activation
system.mem_ctrls1.bytesPerActivate::256-383        57004     12.05%     89.97% # Bytes accessed per row activation
system.mem_ctrls1.bytesPerActivate::384-511        31240      6.60%     96.57% # Bytes accessed per row activation
system.mem_ctrls1.bytesPerActivate::512-639         7432      1.57%     98.14% # Bytes accessed per row activation
system.mem_ctrls1.bytesPerActivate::640-767         2531      0.53%     98.68% # Bytes accessed per row activation
system.mem_ctrls1.bytesPerActivate::768-895         1707      0.36%     99.04% # Bytes accessed per row activation
system.mem_ctrls1.bytesPerActivate::896-1023         1530      0.32%     99.36% # Bytes accessed per row activation
system.mem_ctrls1.bytesPerActivate::1024-1151         3031      0.64%    100.00% # Bytes accessed per row activation
system.mem_ctrls1.bytesPerActivate::total       473257                       # Bytes accessed per row activation
system.mem_ctrls1.rdPerTurnAround::samples         4359                       # Reads before turning the bus around for writes
system.mem_ctrls1.rdPerTurnAround::mean    248.304428                       # Reads before turning the bus around for writes
system.mem_ctrls1.rdPerTurnAround::gmean   175.989562                       # Reads before turning the bus around for writes
system.mem_ctrls1.rdPerTurnAround::stdev   511.267915                       # Reads before turning the bus around for writes
system.mem_ctrls1.rdPerTurnAround::0-1023         4254     97.59%     97.59% # Reads before turning the bus around for writes
system.mem_ctrls1.rdPerTurnAround::1024-2047           99      2.27%     99.86% # Reads before turning the bus around for writes
system.mem_ctrls1.rdPerTurnAround::2048-3071            5      0.11%     99.98% # Reads before turning the bus around for writes
system.mem_ctrls1.rdPerTurnAround::28672-29695            1      0.02%    100.00% # Reads before turning the bus around for writes
system.mem_ctrls1.rdPerTurnAround::total         4359                       # Reads before turning the bus around for writes
system.mem_ctrls1.wrPerTurnAround::samples         4359                       # Writes before turning the bus around for reads
system.mem_ctrls1.wrPerTurnAround::mean     17.875201                       # Writes before turning the bus around for reads
system.mem_ctrls1.wrPerTurnAround::gmean    17.867483                       # Writes before turning the bus around for reads
system.mem_ctrls1.wrPerTurnAround::stdev     0.509683                       # Writes before turning the bus around for reads
system.mem_ctrls1.wrPerTurnAround::16             280      6.42%      6.42% # Writes before turning the bus around for reads
system.mem_ctrls1.wrPerTurnAround::17              25      0.57%      7.00% # Writes before turning the bus around for reads
system.mem_ctrls1.wrPerTurnAround::18            4017     92.15%     99.15% # Writes before turning the bus around for reads
system.mem_ctrls1.wrPerTurnAround::19              35      0.80%     99.95% # Writes before turning the bus around for reads
system.mem_ctrls1.wrPerTurnAround::20               1      0.02%     99.98% # Writes before turning the bus around for reads
system.mem_ctrls1.wrPerTurnAround::22               1      0.02%    100.00% # Writes before turning the bus around for reads
system.mem_ctrls1.wrPerTurnAround::total         4359                       # Writes before turning the bus around for reads
system.mem_ctrls1.totQLat                 42155899489                       # Total ticks spent queuing
system.mem_ctrls1.totMemAccLat            62466743239                       # Total ticks spent from burst creation until serviced by the DRAM
system.mem_ctrls1.totBusLat                5416225000                       # Total ticks spent in databus transfers
system.mem_ctrls1.avgQLat                    38916.31                       # Average queueing delay per DRAM burst
system.mem_ctrls1.avgBusLat                   5000.00                       # Average bus latency per DRAM burst
system.mem_ctrls1.avgMemAccLat               57666.31                       # Average memory access latency per DRAM burst
system.mem_ctrls1.avgRdBW                       38.94                       # Average DRAM read bandwidth in MiByte/s
system.mem_ctrls1.avgWrBW                        2.80                       # Average achieved write bandwidth in MiByte/s
system.mem_ctrls1.avgRdBWSys                    39.18                       # Average system read bandwidth in MiByte/s
system.mem_ctrls1.avgWrBWSys                     2.81                       # Average system write bandwidth in MiByte/s
system.mem_ctrls1.peakBW                     12800.00                       # Theoretical peak bandwidth in MiByte/s
system.mem_ctrls1.busUtil                        0.33                       # Data bus utilization in percentage
system.mem_ctrls1.busUtilRead                    0.30                       # Data bus utilization in percentage for reads
system.mem_ctrls1.busUtilWrite                   0.02                       # Data bus utilization in percentage for writes
system.mem_ctrls1.avgRdQLen                      1.01                       # Average read queue length when enqueuing
system.mem_ctrls1.avgWrQLen                     24.31                       # Average write queue length when enqueuing
system.mem_ctrls1.readRowHits                  648610                       # Number of row buffer hits during reads
system.mem_ctrls1.writeRowHits                  39296                       # Number of row buffer hits during writes
system.mem_ctrls1.readRowHitRate                59.88                       # Row buffer hit rate for reads
system.mem_ctrls1.writeRowHitRate               50.41                       # Row buffer hit rate for writes
system.mem_ctrls1.avgGap                   1524124.98                       # Average gap between requests
system.mem_ctrls1.pageHitRate                   59.24                       # Row buffer hit rate, read and write combined
system.mem_ctrls1_0.actEnergy              1823498880                       # Energy for activate commands per rank (pJ)
system.mem_ctrls1_0.preEnergy               969212640                       # Energy for precharge commands per rank (pJ)
system.mem_ctrls1_0.readEnergy             4032050820                       # Energy for read commands per rank (pJ)
system.mem_ctrls1_0.writeEnergy             183978900                       # Energy for write commands per rank (pJ)
system.mem_ctrls1_0.refreshEnergy        99630685440.000015                       # Energy for refresh commands per rank (pJ)
system.mem_ctrls1_0.actBackEnergy         28919857440                       # Energy for active background per rank (pJ)
system.mem_ctrls1_0.preBackEnergy          4192530240                       # Energy for precharge background per rank (pJ)
system.mem_ctrls1_0.actPowerDownEnergy   315465265380                       # Energy for active power-down per rank (pJ)
system.mem_ctrls1_0.prePowerDownEnergy   124675359840                       # Energy for precharge power-down per rank (pJ)
system.mem_ctrls1_0.selfRefreshEnergy    178518995610                       # Energy for self refresh per rank (pJ)
system.mem_ctrls1_0.totalEnergy          758448101010                       # Total energy per rank (pJ)
system.mem_ctrls1_0.averagePower           426.034241                       # Core power per rank (mW)
system.mem_ctrls1_0.totalIdleTime        1705786611013                       # Total Idle time Per DRAM Rank
system.mem_ctrls1_0.memoryStateTime::IDLE   6968982679                       # Time in different power states
system.mem_ctrls1_0.memoryStateTime::REF  42290364000                       # Time in different power states
system.mem_ctrls1_0.memoryStateTime::SREF 689345895229                       # Time in different power states
system.mem_ctrls1_0.memoryStateTime::PRE_PDN 324674492833                       # Time in different power states
system.mem_ctrls1_0.memoryStateTime::ACT  25161361844                       # Time in different power states
system.mem_ctrls1_0.memoryStateTime::ACT_PDN 691810390894                       # Time in different power states
system.mem_ctrls1_1.actEnergy              1555556100                       # Energy for activate commands per rank (pJ)
system.mem_ctrls1_1.preEnergy               826797675                       # Energy for precharge commands per rank (pJ)
system.mem_ctrls1_1.readEnergy             3702318480                       # Energy for read commands per rank (pJ)
system.mem_ctrls1_1.writeEnergy             222753060                       # Energy for write commands per rank (pJ)
system.mem_ctrls1_1.refreshEnergy        92554335120.000015                       # Energy for refresh commands per rank (pJ)
system.mem_ctrls1_1.actBackEnergy         27720961620                       # Energy for active background per rank (pJ)
system.mem_ctrls1_1.preBackEnergy          3953659680                       # Energy for precharge background per rank (pJ)
system.mem_ctrls1_1.actPowerDownEnergy   290696043060                       # Energy for active power-down per rank (pJ)
system.mem_ctrls1_1.prePowerDownEnergy   114862788480                       # Energy for precharge power-down per rank (pJ)
system.mem_ctrls1_1.selfRefreshEnergy    197971938420                       # Energy for self refresh per rank (pJ)
system.mem_ctrls1_1.totalEnergy          734103015855                       # Total energy per rank (pJ)
system.mem_ctrls1_1.averagePower           412.359160                       # Core power per rank (mW)
system.mem_ctrls1_1.totalIdleTime        1708995961636                       # Total Idle time Per DRAM Rank
system.mem_ctrls1_1.memoryStateTime::IDLE   6654825751                       # Time in different power states
system.mem_ctrls1_1.memoryStateTime::REF  39291350000                       # Time in different power states
system.mem_ctrls1_1.memoryStateTime::SREF 772471016729                       # Time in different power states
system.mem_ctrls1_1.memoryStateTime::PRE_PDN 299122001636                       # Time in different power states
system.mem_ctrls1_1.memoryStateTime::ACT  25219803573                       # Time in different power states
system.mem_ctrls1_1.memoryStateTime::ACT_PDN 637492489790                       # Time in different power states
system.pwrStateResidencyTicks::UNDEFINED 734732692041465                       # Cumulative time (in ticks) in various power states
system.cpu.branchPred.lookups                       4                       # Number of BP lookups
system.cpu.branchPred.condPredicted                 4                       # Number of conditional branches predicted
system.cpu.branchPred.condIncorrect                 4                       # Number of conditional branches incorrect
system.cpu.branchPred.BTBLookups                    0                       # Number of BTB lookups
system.cpu.branchPred.BTBHits                       0                       # Number of BTB hits
system.cpu.branchPred.BTBCorrect                    0                       # Number of correct BTB predictions (this stat may not work properly.
system.cpu.branchPred.BTBHitPct                   nan                       # BTB Hit Percentage
system.cpu.branchPred.usedRAS                       0                       # Number of times the RAS was used to get a target.
system.cpu.branchPred.RASInCorrect                  0                       # Number of incorrect RAS predictions.
system.cpu.branchPred.indirectLookups               0                       # Number of indirect predictor lookups.
system.cpu.branchPred.indirectHits                  0                       # Number of indirect target hits.
system.cpu.branchPred.indirectMisses                0                       # Number of indirect misses.
system.cpu.branchPredindirectMispredicted            0                       # Number of mispredicted indirect branches.
system.cpu_voltage_domain.voltage                   1                       # Voltage in Volts
system.cpu_clk_domain.clock                       333                       # Clock period in ticks
system.cpu.dtb.fetch_hits                           0                       # ITB hits
system.cpu.dtb.fetch_misses                         0                       # ITB misses
system.cpu.dtb.fetch_acv                            0                       # ITB acv
system.cpu.dtb.fetch_accesses                       0                       # ITB accesses
system.cpu.dtb.read_hits                           36                       # DTB read hits
system.cpu.dtb.read_misses                          0                       # DTB read misses
system.cpu.dtb.read_acv                             0                       # DTB read access violations
system.cpu.dtb.read_accesses                       36                       # DTB read accesses
system.cpu.dtb.write_hits                           0                       # DTB write hits
system.cpu.dtb.write_misses                         0                       # DTB write misses
system.cpu.dtb.write_acv                            0                       # DTB write access violations
system.cpu.dtb.write_accesses                       0                       # DTB write accesses
system.cpu.dtb.data_hits                           36                       # DTB hits
system.cpu.dtb.data_misses                          0                       # DTB misses
system.cpu.dtb.data_acv                             0                       # DTB access violations
system.cpu.dtb.data_accesses                       36                       # DTB accesses
system.cpu.itb.fetch_hits                          13                       # ITB hits
system.cpu.itb.fetch_misses                         0                       # ITB misses
system.cpu.itb.fetch_acv                            0                       # ITB acv
system.cpu.itb.fetch_accesses                      13                       # ITB accesses
system.cpu.itb.read_hits                            0                       # DTB read hits
system.cpu.itb.read_misses                          0                       # DTB read misses
system.cpu.itb.read_acv                             0                       # DTB read access violations
system.cpu.itb.read_accesses                        0                       # DTB read accesses
system.cpu.itb.write_hits                           0                       # DTB write hits
system.cpu.itb.write_misses                         0                       # DTB write misses
system.cpu.itb.write_acv                            0                       # DTB write access violations
system.cpu.itb.write_accesses                       0                       # DTB write accesses
system.cpu.itb.data_hits                            0                       # DTB hits
system.cpu.itb.data_misses                          0                       # DTB misses
system.cpu.itb.data_acv                             0                       # DTB access violations
system.cpu.itb.data_accesses                        0                       # DTB accesses
system.cpu.workload.num_syscalls                   44                       # Number of system calls
system.cpu.pwrStateResidencyTicks::ON    1780251487479                       # Cumulative time (in ticks) in various power states
system.cpu.numCycles                              997                       # number of cpu cycles simulated
system.cpu.numWorkItemsStarted                      0                       # number of work items this cpu started
system.cpu.numWorkItemsCompleted                    0                       # number of work items this cpu completed
system.cpu.fetch.icacheStallCycles                 63                       # Number of cycles fetch is stalled on an Icache miss
system.cpu.fetch.Insts                             96                       # Number of instructions fetch has processed
system.cpu.fetch.Branches                           4                       # Number of branches that fetch encountered
system.cpu.fetch.Cycles                            12                       # Number of cycles fetch has run and was not squashing or blocked
system.cpu.fetch.SquashCycles                      11                       # Number of cycles fetch has spent squashing
system.cpu.fetch.PendingDrainCycles                16                       # Number of cycles fetch has spent waiting on pipes to drain
system.cpu.fetch.CacheLines                        13                       # Number of cache lines fetched
system.cpu.fetch.IcacheSquashes                     5                       # Number of outstanding Icache misses that were squashed
system.cpu.fetch.rateDist::samples                 96                       # Number of instructions fetched each cycle (Total)
system.cpu.fetch.rateDist::mean                     1                       # Number of instructions fetched each cycle (Total)
system.cpu.fetch.rateDist::stdev             2.659640                       # Number of instructions fetched each cycle (Total)
system.cpu.fetch.rateDist::underflows               0      0.00%      0.00% # Number of instructions fetched each cycle (Total)
system.cpu.fetch.rateDist::0                       84     87.50%     87.50% # Number of instructions fetched each cycle (Total)
system.cpu.fetch.rateDist::1                        0      0.00%     87.50% # Number of instructions fetched each cycle (Total)
system.cpu.fetch.rateDist::2                        0      0.00%     87.50% # Number of instructions fetched each cycle (Total)
system.cpu.fetch.rateDist::3                        0      0.00%     87.50% # Number of instructions fetched each cycle (Total)
[...]
system.switch_cpus_1.iq.int_inst_queue_wakeup_accesses    115364842                       # Number of integer instruction queue wakeup accesses
system.switch_cpus_1.iq.fp_inst_queue_reads    210549023                       # Number of floating instruction queue reads
system.switch_cpus_1.iq.fp_inst_queue_writes    113940825                       # Number of floating instruction queue writes
system.switch_cpus_1.iq.fp_inst_queue_wakeup_accesses    101072221                       # Number of floating instruction queue wakeup accesses
system.switch_cpus_1.iq.int_alu_accesses    118996623                       # Number of integer alu accesses
system.switch_cpus_1.iq.fp_alu_accesses     107706889                       # Number of floating point alu accesses
system.switch_cpus_1.iew.lsq.thread0.forwLoads       572196                       # Number of loads that had data forwarded from stores
system.switch_cpus_1.iew.lsq.thread0.invAddrLoads            0                       # Number of loads ignored due to an invalid address
system.switch_cpus_1.iew.lsq.thread0.squashedLoads      6586506                       # Number of loads squashed
system.switch_cpus_1.iew.lsq.thread0.ignoredResponses         8040                       # Number of memory responses ignored because the instruction is squashed
system.switch_cpus_1.iew.lsq.thread0.memOrderViolation         2241                       # Number of memory ordering violations
system.switch_cpus_1.iew.lsq.thread0.squashedStores       675625                       # Number of stores squashed
system.switch_cpus_1.iew.lsq.thread0.invAddrSwpfs            0                       # Number of software prefetches ignored due to an invalid address
system.switch_cpus_1.iew.lsq.thread0.blockedLoads            0                       # Number of blocked loads due to partial load-store forwarding
system.switch_cpus_1.iew.lsq.thread0.rescheduledLoads          156                       # Number of loads that were rescheduled
system.switch_cpus_1.iew.lsq.thread0.cacheBlocked      2058205                       # Number of times an access to memory failed due to the cache being blocked
system.switch_cpus_1.iew.iewIdleCycles              0                       # Number of cycles IEW is idle
system.switch_cpus_1.iew.iewSquashCycles       510952                       # Number of cycles IEW is squashing
system.switch_cpus_1.iew.iewBlockCycles      96284981                       # Number of cycles IEW is blocking
system.switch_cpus_1.iew.iewUnblockCycles     48732805                       # Number of cycles IEW is unblocking
system.switch_cpus_1.iew.iewDispatchedInsts    228296935                       # Number of instructions dispatched to IQ
system.switch_cpus_1.iew.iewDispSquashedInsts       323860                       # Number of squashed instructions skipped by dispatch
system.switch_cpus_1.iew.iewDispLoadInsts     49887603                       # Number of dispatched load instructions
system.switch_cpus_1.iew.iewDispStoreInsts      4058729                       # Number of dispatched store instructions
system.switch_cpus_1.iew.iewDispNonSpecInsts         3532                       # Number of dispatched non-speculative instructions
system.switch_cpus_1.iew.iewIQFullEvents       790864                       # Number of times the IQ has become full, causing a stall
system.switch_cpus_1.iew.iewLSQFullEvents     47428968                       # Number of times the LSQ has become full, causing a stall
system.switch_cpus_1.iew.memOrderViolationEvents         2241                       # Number of memory order violations
system.switch_cpus_1.iew.predictedTakenIncorrect       406891                       # Number of branches that were predicted taken incorrectly
system.switch_cpus_1.iew.predictedNotTakenIncorrect       105274                       # Number of branches that were predicted not taken incorrectly
system.switch_cpus_1.iew.branchMispredicts       512165                       # Number of branch mispredicts detected at execute
system.switch_cpus_1.iew.iewExecutedInsts    219888547                       # Number of executed instructions
system.switch_cpus_1.iew.iewExecLoadInsts     50322461                       # Number of load instructions executed
system.switch_cpus_1.iew.iewExecSquashedInsts      1013184                       # Number of squashed instructions skipped in execute
system.switch_cpus_1.iew.exec_swp                   0                       # number of swp insts executed
system.switch_cpus_1.iew.exec_nop             2132826                       # number of nop insts executed
system.switch_cpus_1.iew.exec_refs           54131223                       # number of memory reference insts executed
system.switch_cpus_1.iew.exec_branches       18042151                       # Number of branches executed
system.switch_cpus_1.iew.exec_stores          3808762                       # Number of stores executed
system.switch_cpus_1.iew.exec_rate           0.691906                       # Inst execution rate
system.switch_cpus_1.iew.wb_sent            217192254                       # cumulative count of insts sent to commit
system.switch_cpus_1.iew.wb_count           216437063                       # cumulative count of insts written-back
system.switch_cpus_1.iew.wb_producers       160332841                       # num instructions producing a value
system.switch_cpus_1.iew.wb_consumers       204524258                       # num instructions consuming a value
system.switch_cpus_1.iew.wb_rate             0.681045                       # insts written-back per cycle
system.switch_cpus_1.iew.wb_fanout           0.783931                       # average fanout of values written-back
system.switch_cpus_1.commit.commitSquashedInsts     25222385                       # The number of squashed insts skipped by commit
system.switch_cpus_1.commit.commitNonSpecStalls         4876                       # The number of times commit has been forced to stall to communicate backwards
system.switch_cpus_1.commit.branchMispredicts       437968                       # The number of times a branch was mispredicted
system.switch_cpus_1.commit.committed_per_cycle::samples    313819520                       # Number of insts commited each cycle
system.switch_cpus_1.commit.committed_per_cycle::mean     0.642686                       # Number of insts commited each cycle
system.switch_cpus_1.commit.committed_per_cycle::stdev     2.009383                       # Number of insts commited each cycle
system.switch_cpus_1.commit.committed_per_cycle::underflows            0      0.00%      0.00% # Number of insts commited each cycle
system.switch_cpus_1.commit.committed_per_cycle::0    276614924     88.14%     88.14% # Number of insts commited each cycle
system.switch_cpus_1.commit.committed_per_cycle::1      6796781      2.17%     90.31% # Number of insts commited each cycle
system.switch_cpus_1.commit.committed_per_cycle::2      3522643      1.12%     91.43% # Number of insts commited each cycle
system.switch_cpus_1.commit.committed_per_cycle::3      1381171      0.44%     91.87% # Number of insts commited each cycle
system.switch_cpus_1.commit.committed_per_cycle::4      1731209      0.55%     92.42% # Number of insts commited each cycle
system.switch_cpus_1.commit.committed_per_cycle::5      1114984      0.36%     92.78% # Number of insts commited each cycle
system.switch_cpus_1.commit.committed_per_cycle::6      4310444      1.37%     94.15% # Number of insts commited each cycle
system.switch_cpus_1.commit.committed_per_cycle::7      1439548      0.46%     94.61% # Number of insts commited each cycle
system.switch_cpus_1.commit.committed_per_cycle::8     16907816      5.39%    100.00% # Number of insts commited each cycle
system.switch_cpus_1.commit.committed_per_cycle::overflows            0      0.00%    100.00% # Number of insts commited each cycle
system.switch_cpus_1.commit.committed_per_cycle::min_value            0                       # Number of insts commited each cycle
system.switch_cpus_1.commit.committed_per_cycle::max_value            8                       # Number of insts commited each cycle
system.switch_cpus_1.commit.committed_per_cycle::total    313819520                       # Number of insts commited each cycle
system.switch_cpus_1.commit.committedInsts    201687364                       # Number of instructions committed
system.switch_cpus_1.commit.committedOps    201687364                       # Number of ops (including micro ops) committed
system.switch_cpus_1.commit.swp_count               0                       # Number of s/w prefetches committed
system.switch_cpus_1.commit.refs             46684198                       # Number of memory references committed
system.switch_cpus_1.commit.loads            43301094                       # Number of loads committed
system.switch_cpus_1.commit.membars              2438                       # Number of memory barriers committed
system.switch_cpus_1.commit.branches         16053531                       # Number of branches committed
system.switch_cpus_1.commit.fp_insts         97819303                       # Number of committed floating point instructions.
system.switch_cpus_1.commit.int_insts       136497010                       # Number of committed integer instructions.
system.switch_cpus_1.commit.function_calls       279259                       # Number of function calls committed.
system.switch_cpus_1.commit.op_class_0::No_OpClass      1687643      0.84%      0.84% # Class of committed instruction
system.switch_cpus_1.commit.op_class_0::IntAlu     89863699     44.56%     45.39% # Class of committed instruction
system.switch_cpus_1.commit.op_class_0::IntMult          759      0.00%     45.39% # Class of committed instruction
system.switch_cpus_1.commit.op_class_0::IntDiv            0      0.00%     45.39% # Class of committed instruction
system.switch_cpus_1.commit.op_class_0::FloatAdd     37891739     18.79%     64.18% # Class of committed instruction
system.switch_cpus_1.commit.op_class_0::FloatCmp       635720      0.32%     64.50% # Class of committed instruction
system.switch_cpus_1.commit.op_class_0::FloatCvt       230023      0.11%     64.61% # Class of committed instruction
system.switch_cpus_1.commit.op_class_0::FloatMult     24664631     12.23%     76.84% # Class of committed instruction
system.switch_cpus_1.commit.op_class_0::FloatMultAcc            0      0.00%     76.84% # Class of committed instruction
system.switch_cpus_1.commit.op_class_0::FloatDiv        26514      0.01%     76.85% # Class of committed instruction
system.switch_cpus_1.commit.op_class_0::FloatMisc            0      0.00%     76.85% # Class of committed instruction
system.switch_cpus_1.commit.op_class_0::FloatSqrt            0      0.00%     76.85% # Class of committed instruction
system.switch_cpus_1.commit.op_class_0::SimdAdd            0      0.00%     76.85% # Class of committed instruction
system.switch_cpus_1.commit.op_class_0::SimdAddAcc            0      0.00%     76.85% # Class of committed instruction
system.switch_cpus_1.commit.op_class_0::SimdAlu            0      0.00%     76.85% # Class of committed instruction
system.switch_cpus_1.commit.op_class_0::SimdCmp            0      0.00%     76.85% # Class of committed instruction
system.switch_cpus_1.commit.op_class_0::SimdCvt            0      0.00%     76.85% # Class of committed instruction
system.switch_cpus_1.commit.op_class_0::SimdMisc            0      0.00%     76.85% # Class of committed instruction
system.switch_cpus_1.commit.op_class_0::SimdMult            0      0.00%     76.85% # Class of committed instruction
system.switch_cpus_1.commit.op_class_0::SimdMultAcc            0      0.00%     76.85% # Class of committed instruction
system.switch_cpus_1.commit.op_class_0::SimdShift            0      0.00%     76.85% # Class of committed instruction
system.switch_cpus_1.commit.op_class_0::SimdShiftAcc            0      0.00%     76.85% # Class of committed instruction
system.switch_cpus_1.commit.op_class_0::SimdSqrt            0      0.00%     76.85% # Class of committed instruction
system.switch_cpus_1.commit.op_class_0::SimdFloatAdd            0      0.00%     76.85% # Class of committed instruction
system.switch_cpus_1.commit.op_class_0::SimdFloatAlu            0      0.00%     76.85% # Class of committed instruction
system.switch_cpus_1.commit.op_class_0::SimdFloatCmp            0      0.00%     76.85% # Class of committed instruction
system.switch_cpus_1.commit.op_class_0::SimdFloatCvt            0      0.00%     76.85% # Class of committed instruction
system.switch_cpus_1.commit.op_class_0::SimdFloatDiv            0      0.00%     76.85% # Class of committed instruction
system.switch_cpus_1.commit.op_class_0::SimdFloatMisc            0      0.00%     76.85% # Class of committed instruction
system.switch_cpus_1.commit.op_class_0::SimdFloatMult            0      0.00%     76.85% # Class of committed instruction
system.switch_cpus_1.commit.op_class_0::SimdFloatMultAcc            0      0.00%     76.85% # Class of committed instruction
system.switch_cpus_1.commit.op_class_0::SimdFloatSqrt            0      0.00%     76.85% # Class of committed instruction
system.switch_cpus_1.commit.op_class_0::MemRead      9751532      4.83%     81.69% # Class of committed instruction
system.switch_cpus_1.commit.op_class_0::MemWrite      2564428      1.27%     82.96% # Class of committed instruction
system.switch_cpus_1.commit.op_class_0::FloatMemRead     33552000     16.64%     99.59% # Class of committed instruction
system.switch_cpus_1.commit.op_class_0::FloatMemWrite       818676      0.41%    100.00% # Class of committed instruction
system.switch_cpus_1.commit.op_class_0::IprAccess            0      0.00%    100.00% # Class of committed instruction
system.switch_cpus_1.commit.op_class_0::InstPrefetch            0      0.00%    100.00% # Class of committed instruction
system.switch_cpus_1.commit.op_class_0::total    201687364                       # Class of committed instruction
system.switch_cpus_1.commit.bw_lim_events     16907816                       # number cycles where commit BW limit reached
system.switch_cpus_1.rob.rob_reads          522897270                       # The number of ROB reads
system.switch_cpus_1.rob.rob_writes         457247543                       # The number of ROB writes
system.switch_cpus_1.timesIdled                  2424                       # Number of times that the entire CPU went into an idle state and unscheduled itself
system.switch_cpus_1.idleCycles                555944                       # Total number of cycles that the CPU has spent unscheduled due to idling
system.switch_cpus_1.committedInsts         200000005                       # Number of Instructions Simulated
system.switch_cpus_1.committedOps           200000005                       # Number of Ops (including micro ops) Simulated
system.switch_cpus_1.cpi                     1.589007                       # CPI: Cycles Per Instruction
system.switch_cpus_1.cpi_total               1.589007                       # CPI: Total CPI of All Threads
system.switch_cpus_1.ipc                     0.629324                       # IPC: Instructions Per Cycle
system.switch_cpus_1.ipc_total               0.629324                       # IPC: Total IPC of All Threads
system.switch_cpus_1.int_regfile_reads      218047166                       # number of integer regfile reads
system.switch_cpus_1.int_regfile_writes      95023449                       # number of integer regfile writes
system.switch_cpus_1.fp_regfile_reads       130231065                       # number of floating regfile reads
system.switch_cpus_1.fp_regfile_writes      100036916                       # number of floating regfile writes
system.switch_cpus_1.misc_regfile_reads        407265                       # number of misc regfile reads
system.switch_cpus_1.misc_regfile_writes         5018                       # number of misc regfile writes
system.tol3bus.snoop_filter.tot_requests     26332307                       # Total number of requests made to the snoop filter.
system.tol3bus.snoop_filter.hit_single_requests     13164874                       # Number of requests hitting in the snoop filter with a single holder of the requested data.
system.tol3bus.snoop_filter.hit_multi_requests            0                       # Number of requests hitting in the snoop filter with multiple (>1) holders of the requested data.
system.tol3bus.snoop_filter.tot_snoops           5827                       # Total number of snoops made to the snoop filter.
system.tol3bus.snoop_filter.hit_single_snoops         5827                       # Number of snoops hitting in the snoop filter with a single holder of the requested data.
system.tol3bus.snoop_filter.hit_multi_snoops            0                       # Number of snoops hitting in the snoop filter with multiple (>1) holders of the requested data.
system.tol3bus.pwrStateResidencyTicks::UNDEFINED 734732692041465                       # Cumulative time (in ticks) in various power states
system.tol3bus.trans_dist::ReadResp          12311852                       # Transaction distribution
system.tol3bus.trans_dist::WritebackDirty      1771260                       # Transaction distribution
system.tol3bus.trans_dist::CleanEvict        13510255                       # Transaction distribution
system.tol3bus.trans_dist::UpgradeReq              45                       # Transaction distribution
system.tol3bus.trans_dist::UpgradeResp             45                       # Transaction distribution
system.tol3bus.trans_dist::ReadExReq           855581                       # Transaction distribution
system.tol3bus.trans_dist::ReadExResp          855581                       # Transaction distribution
system.tol3bus.trans_dist::ReadSharedReq     12311852                       # Transaction distribution
system.tol3bus.pkt_count_system.cpu.l2.mem_side::system.l3.cpu_side     39499785                       # Packet count per connected master and slave (bytes)
system.tol3bus.pkt_size_system.cpu.l2.mem_side::system.l3.cpu_side    946054208                       # Cumulative packet size per connected master and slave (bytes)
system.tol3bus.snoops                         2116686                       # Total snoops (count)
system.tol3bus.snoopTraffic                  10022144                       # Total snoop traffic (bytes)
system.tol3bus.snoop_fanout::samples         15284164                       # Request fanout histogram
system.tol3bus.snoop_fanout::mean            0.000381                       # Request fanout histogram
system.tol3bus.snoop_fanout::stdev           0.019522                       # Request fanout histogram
system.tol3bus.snoop_fanout::underflows             0      0.00%      0.00% # Request fanout histogram
system.tol3bus.snoop_fanout::0               15278337     99.96%     99.96% # Request fanout histogram
system.tol3bus.snoop_fanout::1                   5827      0.04%    100.00% # Request fanout histogram
system.tol3bus.snoop_fanout::overflows              0      0.00%    100.00% # Request fanout histogram
system.tol3bus.snoop_fanout::min_value              0                       # Request fanout histogram
system.tol3bus.snoop_fanout::max_value              1                       # Request fanout histogram
system.tol3bus.snoop_fanout::total           15284164                       # Request fanout histogram
system.tol3bus.reqLayer0.occupancy         9306341343                       # Layer occupancy (ticks)
system.tol3bus.reqLayer0.utilization              0.5                       # Layer utilization (%)
system.tol3bus.respLayer0.occupancy        8769525363                       # Layer occupancy (ticks)
system.tol3bus.respLayer0.utilization             0.5                       # Layer utilization (%)

---------- End Simulation Statistics   ----------
