
---------- Begin Simulation Statistics ----------
sim_seconds                                  1.016379                       # Number of seconds simulated
sim_ticks                                1016378773830                       # Number of ticks simulated
final_tick                               176567662895697                       # Number of ticks from beginning of simulation (restored from checkpoints and never reset)
sim_freq                                 1000000000000                       # Frequency of simulated ticks
host_inst_rate                                 699449                       # Simulator instruction rate (inst/s)
host_op_rate                                   699448                       # Simulator op (including micro ops) rate (op/s)
host_tick_rate                              592420498                       # Simulator tick rate (ticks/s)
host_mem_usage                                2388816                       # Number of bytes of host memory used
host_seconds                                  1715.64                       # Real time elapsed on the host
sim_insts                                  1200000005                       # Number of instructions simulated
sim_ops                                    1200000005                       # Number of ops (including micro ops) simulated
system.voltage_domain.voltage                       1                       # Voltage in Volts
system.clk_domain.clock                          1000                       # Clock period in ticks
system.mem_ctrls0.pwrStateResidencyTicks::UNDEFINED 176567662895697                       # Cumulative time (in ticks) in various power states
system.mem_ctrls0.bytes_read::cpu.inst             64                       # Number of bytes read from this memory
system.mem_ctrls0.bytes_read::cpu.data            192                       # Number of bytes read from this memory
system.mem_ctrls0.bytes_read::switch_cpus.inst        48832                       # Number of bytes read from this memory
system.mem_ctrls0.bytes_read::switch_cpus.data      2283264                       # Number of bytes read from this memory
system.mem_ctrls0.bytes_read::switch_cpus_1.inst        11200                       # Number of bytes read from this memory
system.mem_ctrls0.bytes_read::switch_cpus_1.data       220224                       # Number of bytes read from this memory
system.mem_ctrls0.bytes_read::total           2563776                       # Number of bytes read from this memory
system.mem_ctrls0.bytes_inst_read::cpu.inst           64                       # Number of instructions bytes read from this memory
system.mem_ctrls0.bytes_inst_read::switch_cpus.inst        48832                       # Number of instructions bytes read from this memory
system.mem_ctrls0.bytes_inst_read::switch_cpus_1.inst        11200                       # Number of instructions bytes read from this memory
system.mem_ctrls0.bytes_inst_read::total        60096                       # Number of instructions bytes read from this memory
system.mem_ctrls0.bytes_written::writebacks        77248                       # Number of bytes written to this memory
system.mem_ctrls0.bytes_written::total          77248                       # Number of bytes written to this memory
system.mem_ctrls0.num_reads::cpu.inst               1                       # Number of read requests responded to by this memory
system.mem_ctrls0.num_reads::cpu.data               3                       # Number of read requests responded to by this memory
system.mem_ctrls0.num_reads::switch_cpus.inst          763                       # Number of read requests responded to by this memory
system.mem_ctrls0.num_reads::switch_cpus.data        35676                       # Number of read requests responded to by this memory
system.mem_ctrls0.num_reads::switch_cpus_1.inst          175                       # Number of read requests responded to by this memory
system.mem_ctrls0.num_reads::switch_cpus_1.data         3441                       # Number of read requests responded to by this memory
system.mem_ctrls0.num_reads::total              40059                       # Number of read requests responded to by this memory
system.mem_ctrls0.num_writes::writebacks         1207                       # Number of write requests responded to by this memory
system.mem_ctrls0.num_writes::total              1207                       # Number of write requests responded to by this memory
system.mem_ctrls0.bw_read::cpu.inst                63                       # Total read bandwidth from this memory (bytes/s)
system.mem_ctrls0.bw_read::cpu.data               189                       # Total read bandwidth from this memory (bytes/s)
system.mem_ctrls0.bw_read::switch_cpus.inst        48045                       # Total read bandwidth from this memory (bytes/s)
system.mem_ctrls0.bw_read::switch_cpus.data      2246470                       # Total read bandwidth from this memory (bytes/s)
system.mem_ctrls0.bw_read::switch_cpus_1.inst        11020                       # Total read bandwidth from this memory (bytes/s)
system.mem_ctrls0.bw_read::switch_cpus_1.data       216675                       # Total read bandwidth from this memory (bytes/s)
system.mem_ctrls0.bw_read::total              2522461                       # Total read bandwidth from this memory (bytes/s)
system.mem_ctrls0.bw_inst_read::cpu.inst           63                       # Instruction read bandwidth from this memory (bytes/s)
system.mem_ctrls0.bw_inst_read::switch_cpus.inst        48045                       # Instruction read bandwidth from this memory (bytes/s)
system.mem_ctrls0.bw_inst_read::switch_cpus_1.inst        11020                       # Instruction read bandwidth from this memory (bytes/s)
system.mem_ctrls0.bw_inst_read::total           59128                       # Instruction read bandwidth from this memory (bytes/s)
system.mem_ctrls0.bw_write::writebacks          76003                       # Write bandwidth from this memory (bytes/s)
system.mem_ctrls0.bw_write::total               76003                       # Write bandwidth from this memory (bytes/s)
system.mem_ctrls0.bw_total::writebacks          76003                       # Total bandwidth to/from this memory (bytes/s)
system.mem_ctrls0.bw_total::cpu.inst               63                       # Total bandwidth to/from this memory (bytes/s)
system.mem_ctrls0.bw_total::cpu.data              189                       # Total bandwidth to/from this memory (bytes/s)
system.mem_ctrls0.bw_total::switch_cpus.inst        48045                       # Total bandwidth to/from this memory (bytes/s)
system.mem_ctrls0.bw_total::switch_cpus.data      2246470                       # Total bandwidth to/from this memory (bytes/s)
system.mem_ctrls0.bw_total::switch_cpus_1.inst        11020                       # Total bandwidth to/from this memory (bytes/s)
system.mem_ctrls0.bw_total::switch_cpus_1.data       216675                       # Total bandwidth to/from this memory (bytes/s)
system.mem_ctrls0.bw_total::total             2598464                       # Total bandwidth to/from this memory (bytes/s)
system.mem_ctrls0.readReqs                      40059                       # Number of read requests accepted
system.mem_ctrls0.writeReqs                      1207                       # Number of write requests accepted
system.mem_ctrls0.readBursts                    40059                       # Number of DRAM read bursts, including those serviced by the write queue
system.mem_ctrls0.writeBursts                    1207                       # Number of DRAM write bursts, including those merged in the write queue
system.mem_ctrls0.bytesReadDRAM               2529728                       # Total number of bytes read from DRAM
system.mem_ctrls0.bytesReadWrQ                  34048                       # Total number of bytes read from write queue
system.mem_ctrls0.bytesWritten                  75392                       # Total number of bytes written to DRAM
system.mem_ctrls0.bytesReadSys                2563776                       # Total read bytes from the system interface side
system.mem_ctrls0.bytesWrittenSys               77248                       # Total written bytes from the system interface side
system.mem_ctrls0.servicedByWrQ                   532                       # Number of DRAM read bursts serviced by the write queue
system.mem_ctrls0.mergedWrBursts                    4                       # Number of DRAM write bursts merged with an existing one
system.mem_ctrls0.neitherReadNorWriteReqs            0                       # Number of requests that are neither read nor write
system.mem_ctrls0.perBankRdBursts::0             2517                       # Per bank write bursts
system.mem_ctrls0.perBankRdBursts::1             2173                       # Per bank write bursts
system.mem_ctrls0.perBankRdBursts::2             2240                       # Per bank write bursts
system.mem_ctrls0.perBankRdBursts::3             2437                       # Per bank write bursts
system.mem_ctrls0.perBankRdBursts::4             2229                       # Per bank write bursts
system.mem_ctrls0.perBankRdBursts::5             2411                       # Per bank write bursts
system.mem_ctrls0.perBankRdBursts::6             2582                       # Per bank write bursts
system.mem_ctrls0.perBankRdBursts::7             2466                       # Per bank write bursts
system.mem_ctrls0.perBankRdBursts::8             2496                       # Per bank write bursts
system.mem_ctrls0.perBankRdBursts::9             2569                       # Per bank write bursts
system.mem_ctrls0.perBankRdBursts::10            2619                       # Per bank write bursts
system.mem_ctrls0.perBankRdBursts::11            2461                       # Per bank write bursts
system.mem_ctrls0.perBankRdBursts::12            2605                       # Per bank write bursts
system.mem_ctrls0.perBankRdBursts::13            2497                       # Per bank write bursts
system.mem_ctrls0.perBankRdBursts::14            2786                       # Per bank write bursts
system.mem_ctrls0.perBankRdBursts::15            2439                       # Per bank write bursts
system.mem_ctrls0.perBankWrBursts::0               82                       # Per bank write bursts
system.mem_ctrls0.perBankWrBursts::1               20                       # Per bank write bursts
system.mem_ctrls0.perBankWrBursts::2               64                       # Per bank write bursts
system.mem_ctrls0.perBankWrBursts::3               54                       # Per bank write bursts
system.mem_ctrls0.perBankWrBursts::4               75                       # Per bank write bursts
system.mem_ctrls0.perBankWrBursts::5               44                       # Per bank write bursts
system.mem_ctrls0.perBankWrBursts::6              119                       # Per bank write bursts
system.mem_ctrls0.perBankWrBursts::7               63                       # Per bank write bursts
system.mem_ctrls0.perBankWrBursts::8               87                       # Per bank write bursts
system.mem_ctrls0.perBankWrBursts::9               40                       # Per bank write bursts
system.mem_ctrls0.perBankWrBursts::10              49                       # Per bank write bursts
system.mem_ctrls0.perBankWrBursts::11              91                       # Per bank write bursts
system.mem_ctrls0.perBankWrBursts::12             101                       # Per bank write bursts
system.mem_ctrls0.perBankWrBursts::13              65                       # Per bank write bursts
system.mem_ctrls0.perBankWrBursts::14             166                       # Per bank write bursts
system.mem_ctrls0.perBankWrBursts::15              58                       # Per bank write bursts
system.mem_ctrls0.numRdRetry                        0                       # Number of times read queue was full causing retry
system.mem_ctrls0.numWrRetry                        0                       # Number of times write queue was full causing retry
system.mem_ctrls0.totGap                 1016329347972                       # Total gap between requests
system.mem_ctrls0.readPktSize::0                    0                       # Read request sizes (log2)
system.mem_ctrls0.readPktSize::1                    0                       # Read request sizes (log2)
system.mem_ctrls0.readPktSize::2                    0                       # Read request sizes (log2)
system.mem_ctrls0.readPktSize::3                    0                       # Read request sizes (log2)
system.mem_ctrls0.readPktSize::4                    0                       # Read request sizes (log2)
system.mem_ctrls0.readPktSize::5                    0                       # Read request sizes (log2)
system.mem_ctrls0.readPktSize::6                40059                       # Read request sizes (log2)
system.mem_ctrls0.writePktSize::0                   0                       # Write request sizes (log2)
system.mem_ctrls0.writePktSize::1                   0                       # Write request sizes (log2)
system.mem_ctrls0.writePktSize::2                   0                       # Write request sizes (log2)
system.mem_ctrls0.writePktSize::3                   0                       # Write request sizes (log2)
system.mem_ctrls0.writePktSize::4                   0                       # Write request sizes (log2)
system.mem_ctrls0.writePktSize::5                   0                       # Write request sizes (log2)
system.mem_ctrls0.writePktSize::6                1207                       # Write request sizes (log2)
system.mem_ctrls0.rdQLenPdf::0                  39417                       # What read queue length does an incoming req see
system.mem_ctrls0.rdQLenPdf::1                    107                       # What read queue length does an incoming req see
system.mem_ctrls0.rdQLenPdf::2                      3                       # What read queue length does an incoming req see
system.mem_ctrls0.rdQLenPdf::3                      0                       # What read queue length does an incoming req see
system.mem_ctrls0.rdQLenPdf::4                      0                       # What read queue length does an incoming req see
system.mem_ctrls0.rdQLenPdf::5                      0                       # What read queue length does an incoming req see
system.mem_ctrls0.rdQLenPdf::6                      0                       # What read queue length does an incoming req see
system.mem_ctrls0.rdQLenPdf::7                      0                       # What read queue length does an incoming req see
system.mem_ctrls0.rdQLenPdf::8                      0                       # What read queue length does an incoming req see
system.mem_ctrls0.rdQLenPdf::9                      0                       # What read queue length does an incoming req see
system.mem_ctrls0.rdQLenPdf::10                     0                       # What read queue length does an incoming req see
system.mem_ctrls0.rdQLenPdf::11                     0                       # What read queue length does an incoming req see
system.mem_ctrls0.rdQLenPdf::12                     0                       # What read queue length does an incoming req see
system.mem_ctrls0.rdQLenPdf::13                     0                       # What read queue length does an incoming req see
system.mem_ctrls0.rdQLenPdf::14                     0                       # What read queue length does an incoming req see
system.mem_ctrls0.rdQLenPdf::15                     0                       # What read queue length does an incoming req see
system.mem_ctrls0.rdQLenPdf::16                     0                       # What read queue length does an incoming req see
system.mem_ctrls0.rdQLenPdf::17                     0                       # What read queue length does an incoming req see
system.mem_ctrls0.rdQLenPdf::18                     0                       # What read queue length does an incoming req see
system.mem_ctrls0.rdQLenPdf::19                     0                       # What read queue length does an incoming req see
system.mem_ctrls0.rdQLenPdf::20                     0                       # What read queue length does an incoming req see
system.mem_ctrls0.rdQLenPdf::21                     0                       # What read queue length does an incoming req see
system.mem_ctrls0.rdQLenPdf::22                     0                       # What read queue length does an incoming req see
system.mem_ctrls0.rdQLenPdf::23                     0                       # What read queue length does an incoming req see
system.mem_ctrls0.rdQLenPdf::24                     0                       # What read queue length does an incoming req see
system.mem_ctrls0.rdQLenPdf::25                     0                       # What read queue length does an incoming req see
system.mem_ctrls0.rdQLenPdf::26                     0                       # What read queue length does an incoming req see
system.mem_ctrls0.rdQLenPdf::27                     0                       # What read queue length does an incoming req see
system.mem_ctrls0.rdQLenPdf::28                     0                       # What read queue length does an incoming req see
system.mem_ctrls0.rdQLenPdf::29                     0                       # What read queue length does an incoming req see
system.mem_ctrls0.rdQLenPdf::30                     0                       # What read queue length does an incoming req see
system.mem_ctrls0.rdQLenPdf::31                     0                       # What read queue length does an incoming req see
system.mem_ctrls0.wrQLenPdf::0                      2                       # What write queue length does an incoming req see
system.mem_ctrls0.wrQLenPdf::1                      2                       # What write queue length does an incoming req see
system.mem_ctrls0.wrQLenPdf::2                      2                       # What write queue length does an incoming req see
system.mem_ctrls0.wrQLenPdf::3                      2                       # What write queue length does an incoming req see
system.mem_ctrls0.wrQLenPdf::4                      2                       # What write queue length does an incoming req see
system.mem_ctrls0.wrQLenPdf::5                      2                       # What write queue length does an incoming req see
system.mem_ctrls0.wrQLenPdf::6                      2                       # What write queue length does an incoming req see
system.mem_ctrls0.wrQLenPdf::7                      2                       # What write queue length does an incoming req see
system.mem_ctrls0.wrQLenPdf::8                      2                       # What write queue length does an incoming req see
system.mem_ctrls0.wrQLenPdf::9                      2                       # What write queue length does an incoming req see
system.mem_ctrls0.wrQLenPdf::10                     2                       # What write queue length does an incoming req see
system.mem_ctrls0.wrQLenPdf::11                     2                       # What write queue length does an incoming req see
system.mem_ctrls0.wrQLenPdf::12                     2                       # What write queue length does an incoming req see
system.mem_ctrls0.wrQLenPdf::13                     2                       # What write queue length does an incoming req see
system.mem_ctrls0.wrQLenPdf::14                     2                       # What write queue length does an incoming req see
system.mem_ctrls0.wrQLenPdf::15                    57                       # What write queue length does an incoming req see
system.mem_ctrls0.wrQLenPdf::16                    57                       # What write queue length does an incoming req see
system.mem_ctrls0.wrQLenPdf::17                    67                       # What write queue length does an incoming req see
system.mem_ctrls0.wrQLenPdf::18                    67                       # What write queue length does an incoming req see
system.mem_ctrls0.wrQLenPdf::19                    67                       # What write queue length does an incoming req see
system.mem_ctrls0.wrQLenPdf::20                    67                       # What write queue length does an incoming req see
system.mem_ctrls0.wrQLenPdf::21                    67                       # What write queue length does an incoming req see
system.mem_ctrls0.wrQLenPdf::22                    67                       # What write queue length does an incoming req see
system.mem_ctrls0.wrQLenPdf::23                    67                       # What write queue length does an incoming req see
system.mem_ctrls0.wrQLenPdf::24                    67                       # What write queue length does an incoming req see
system.mem_ctrls0.wrQLenPdf::25                    66                       # What write queue length does an incoming req see
system.mem_ctrls0.wrQLenPdf::26                    66                       # What write queue length does an incoming req see
system.mem_ctrls0.wrQLenPdf::27                    66                       # What write queue length does an incoming req see
system.mem_ctrls0.wrQLenPdf::28                    65                       # What write queue length does an incoming req see
system.mem_ctrls0.wrQLenPdf::29                    65                       # What write queue length does an incoming req see
system.mem_ctrls0.wrQLenPdf::30                    65                       # What write queue length does an incoming req see
system.mem_ctrls0.wrQLenPdf::31                    65                       # What write queue length does an incoming req see
system.mem_ctrls0.wrQLenPdf::32                    65                       # What write queue length does an incoming req see
system.mem_ctrls0.wrQLenPdf::33                     0                       # What write queue length does an incoming req see
system.mem_ctrls0.wrQLenPdf::34                     0                       # What write queue length does an incoming req see
system.mem_ctrls0.wrQLenPdf::35                     0                       # What write queue length does an incoming req see
system.mem_ctrls0.wrQLenPdf::36                     0                       # What write queue length does an incoming req see
system.mem_ctrls0.wrQLenPdf::37                     0                       # What write queue length does an incoming req see
system.mem_ctrls0.wrQLenPdf::38                     0                       # What write queue length does an incoming req see
system.mem_ctrls0.wrQLenPdf::39                     0                       # What write queue length does an incoming req see
system.mem_ctrls0.wrQLenPdf::40                     0                       # What write queue length does an incoming req see
system.mem_ctrls0.wrQLenPdf::41                     0                       # What write queue length does an incoming req see
system.mem_ctrls0.wrQLenPdf::42                     0                       # What write queue length does an incoming req see
system.mem_ctrls0.wrQLenPdf::43                     0                       # What write queue length does an incoming req see
system.mem_ctrls0.wrQLenPdf::44                     0                       # What write queue length does an incoming req see
system.mem_ctrls0.wrQLenPdf::45                     0                       # What write queue length does an incoming req see
system.mem_ctrls0.wrQLenPdf::46                     0                       # What write queue length does an incoming req see
system.mem_ctrls0.wrQLenPdf::47                     0                       # What write queue length does an incoming req see
system.mem_ctrls0.wrQLenPdf::48                     0                       # What write queue length does an incoming req see
system.mem_ctrls0.wrQLenPdf::49                     0                       # What write queue length does an incoming req see
system.mem_ctrls0.wrQLenPdf::50                     0                       # What write queue length does an incoming req see
system.mem_ctrls0.wrQLenPdf::51                     0                       # What write queue length does an incoming req see
system.mem_ctrls0.wrQLenPdf::52                     0                       # What write queue length does an incoming req see
system.mem_ctrls0.wrQLenPdf::53                     0                       # What write queue length does an incoming req see
system.mem_ctrls0.wrQLenPdf::54                     0                       # What write queue length does an incoming req see
system.mem_ctrls0.wrQLenPdf::55                     0                       # What write queue length does an incoming req see
system.mem_ctrls0.wrQLenPdf::56                     0                       # What write queue length does an incoming req see
system.mem_ctrls0.wrQLenPdf::57                     0                       # What write queue length does an incoming req see
system.mem_ctrls0.wrQLenPdf::58                     0                       # What write queue length does an incoming req see
system.mem_ctrls0.wrQLenPdf::59                     0                       # What write queue length does an incoming req see
system.mem_ctrls0.wrQLenPdf::60                     0                       # What write queue length does an incoming req see
system.mem_ctrls0.wrQLenPdf::61                     0                       # What write queue length does an incoming req see
system.mem_ctrls0.wrQLenPdf::62                     0                       # What write queue length does an incoming req see
system.mem_ctrls0.wrQLenPdf::63                     0                       # What write queue length does an incoming req see
system.mem_ctrls0.bytesPerActivate::samples        14578                       # Bytes accessed per row activation
system.mem_ctrls0.bytesPerActivate::mean   178.702154                       # Bytes accessed per row activation
system.mem_ctrls0.bytesPerActivate::gmean   124.639958                       # Bytes accessed per row activation
system.mem_ctrls0.bytesPerActivate::stdev   197.766383                       # Bytes accessed per row activation
system.mem_ctrls0.bytesPerActivate::0-127         6851     47.00%     47.00% # Bytes accessed per row activation
system.mem_ctrls0.bytesPerActivate::128-255         4808     32.98%     79.98% # Bytes accessed per row activation
system.mem_ctrls0.bytesPerActivate::256-383         1131      7.76%     87.73% # Bytes accessed per row activation
system.mem_ctrls0.bytesPerActivate::384-511          803      5.51%     93.24% # Bytes accessed per row activation
system.mem_ctrls0.bytesPerActivate::512-639          196      1.34%     94.59% # Bytes accessed per row activation
system.mem_ctrls0.bytesPerActivate::640-767          133      0.91%     95.50% # Bytes accessed per row activation
system.mem_ctrls0.bytesPerActivate::768-895          180      1.23%     96.73% # Bytes accessed per row activation
system.mem_ctrls0.bytesPerActivate::896-1023          266      1.82%     98.56% # Bytes accessed per row activation
system.mem_ctrls0.bytesPerActivate::1024-1151          210      1.44%    100.00% # Bytes accessed per row activation
system.mem_ctrls0.bytesPerActivate::total        14578                       # Bytes accessed per row activation
system.mem_ctrls0.rdPerTurnAround::samples           66                       # Reads before turning the bus around for writes
system.mem_ctrls0.rdPerTurnAround::mean    598.166667                       # Reads before turning the bus around for writes
system.mem_ctrls0.rdPerTurnAround::gmean   110.425048                       # Reads before turning the bus around for writes
system.mem_ctrls0.rdPerTurnAround::stdev  3566.169389                       # Reads before turning the bus around for writes
system.mem_ctrls0.rdPerTurnAround::0-1023           65     98.48%     98.48% # Reads before turning the bus around for writes
system.mem_ctrls0.rdPerTurnAround::28672-29695            1      1.52%    100.00% # Reads before turning the bus around for writes
system.mem_ctrls0.rdPerTurnAround::total           66                       # Reads before turning the bus around for writes
system.mem_ctrls0.wrPerTurnAround::samples           66                       # Writes before turning the bus around for reads
system.mem_ctrls0.wrPerTurnAround::mean     17.848485                       # Writes before turning the bus around for reads
system.mem_ctrls0.wrPerTurnAround::gmean    17.800388                       # Writes before turning the bus around for reads
system.mem_ctrls0.wrPerTurnAround::stdev     1.459636                       # Writes before turning the bus around for reads
system.mem_ctrls0.wrPerTurnAround::16              10     15.15%     15.15% # Writes before turning the bus around for reads
system.mem_ctrls0.wrPerTurnAround::18              55     83.33%     98.48% # Writes before turning the bus around for reads
system.mem_ctrls0.wrPerTurnAround::28               1      1.52%    100.00% # Writes before turning the bus around for reads
system.mem_ctrls0.wrPerTurnAround::total           66                       # Writes before turning the bus around for reads
system.mem_ctrls0.totQLat                  3026173422                       # Total ticks spent queuing
system.mem_ctrls0.totMemAccLat             3767304672                       # Total ticks spent from burst creation until serviced by the DRAM
system.mem_ctrls0.totBusLat                 197635000                       # Total ticks spent in databus transfers
system.mem_ctrls0.avgQLat                    76559.65                       # Average queueing delay per DRAM burst
system.mem_ctrls0.avgBusLat                   5000.00                       # Average bus latency per DRAM burst
system.mem_ctrls0.avgMemAccLat               95309.65                       # Average memory access latency per DRAM burst
system.mem_ctrls0.avgRdBW                        2.49                       # Average DRAM read bandwidth in MiByte/s
system.mem_ctrls0.avgWrBW                        0.07                       # Average achieved write bandwidth in MiByte/s
system.mem_ctrls0.avgRdBWSys                     2.52                       # Average system read bandwidth in MiByte/s
system.mem_ctrls0.avgWrBWSys                     0.08                       # Average system write bandwidth in MiByte/s
system.mem_ctrls0.peakBW                     12800.00                       # Theoretical peak bandwidth in MiByte/s
system.mem_ctrls0.busUtil                        0.02                       # Data bus utilization in percentage
system.mem_ctrls0.busUtilRead                    0.02                       # Data bus utilization in percentage for reads
system.mem_ctrls0.busUtilWrite                   0.00                       # Data bus utilization in percentage for writes
system.mem_ctrls0.avgRdQLen                      1.00                       # Average read queue length when enqueuing
system.mem_ctrls0.avgWrQLen                     13.08                       # Average write queue length when enqueuing
system.mem_ctrls0.readRowHits                   25924                       # Number of row buffer hits during reads
system.mem_ctrls0.writeRowHits                    203                       # Number of row buffer hits during writes
system.mem_ctrls0.readRowHitRate                65.59                       # Row buffer hit rate for reads
system.mem_ctrls0.writeRowHitRate               16.87                       # Row buffer hit rate for writes
system.mem_ctrls0.avgGap                  24628734.26                       # Average gap between requests
system.mem_ctrls0.pageHitRate                   64.15                       # Row buffer hit rate, read and write combined
system.mem_ctrls0_0.actEnergy                47166840                       # Energy for activate commands per rank (pJ)
system.mem_ctrls0_0.preEnergy                25069770                       # Energy for precharge commands per rank (pJ)
system.mem_ctrls0_0.readEnergy              136052700                       # Energy for read commands per rank (pJ)
system.mem_ctrls0_0.writeEnergy               2719620                       # Energy for write commands per rank (pJ)
system.mem_ctrls0_0.refreshEnergy        4923266400.000001                       # Energy for refresh commands per rank (pJ)
system.mem_ctrls0_0.actBackEnergy          1296913590                       # Energy for active background per rank (pJ)
system.mem_ctrls0_0.preBackEnergy           295609920                       # Energy for precharge background per rank (pJ)
system.mem_ctrls0_0.actPowerDownEnergy    11090383410                       # Energy for active power-down per rank (pJ)
system.mem_ctrls0_0.prePowerDownEnergy     7105741920                       # Energy for precharge power-down per rank (pJ)
system.mem_ctrls0_0.selfRefreshEnergy    233999493270                       # Energy for self refresh per rank (pJ)
system.mem_ctrls0_0.totalEnergy          258925610880                       # Total energy per rank (pJ)
system.mem_ctrls0_0.averagePower           254.753068                       # Core power per rank (mW)
system.mem_ctrls0_0.totalIdleTime        1012702372597                       # Total Idle time Per DRAM Rank
system.mem_ctrls0_0.memoryStateTime::IDLE    602477792                       # Time in different power states
system.mem_ctrls0_0.memoryStateTime::REF   2096088000                       # Time in different power states
system.mem_ctrls0_0.memoryStateTime::SREF 969932194330                       # Time in different power states
system.mem_ctrls0_0.memoryStateTime::PRE_PDN  18504565847                       # Time in different power states
system.mem_ctrls0_0.memoryStateTime::ACT    922422201                       # Time in different power states
system.mem_ctrls0_0.memoryStateTime::ACT_PDN  24321025660                       # Time in different power states
system.mem_ctrls0_1.actEnergy                56920080                       # Energy for activate commands per rank (pJ)
system.mem_ctrls0_1.preEnergy                30253740                       # Energy for precharge commands per rank (pJ)
system.mem_ctrls0_1.readEnergy              146170080                       # Energy for read commands per rank (pJ)
system.mem_ctrls0_1.writeEnergy               3429540                       # Energy for write commands per rank (pJ)
system.mem_ctrls0_1.refreshEnergy        5933734560.000001                       # Energy for refresh commands per rank (pJ)
system.mem_ctrls0_1.actBackEnergy          1484926950                       # Energy for active background per rank (pJ)
system.mem_ctrls0_1.preBackEnergy           355751520                       # Energy for precharge background per rank (pJ)
system.mem_ctrls0_1.actPowerDownEnergy    13302468480                       # Energy for active power-down per rank (pJ)
system.mem_ctrls0_1.prePowerDownEnergy     8828672640                       # Energy for precharge power-down per rank (pJ)
system.mem_ctrls0_1.selfRefreshEnergy    231842440770                       # Energy for self refresh per rank (pJ)
system.mem_ctrls0_1.totalEnergy          261988385130                       # Total energy per rank (pJ)
system.mem_ctrls0_1.averagePower           257.766486                       # Core power per rank (mW)
system.mem_ctrls0_1.totalIdleTime        1012031387834                       # Total Idle time Per DRAM Rank
system.mem_ctrls0_1.memoryStateTime::IDLE    723403079                       # Time in different power states
system.mem_ctrls0_1.memoryStateTime::REF   2525898000                       # Time in different power states
system.mem_ctrls0_1.memoryStateTime::SREF 960024449080                       # Time in different power states
system.mem_ctrls0_1.memoryStateTime::PRE_PDN  22991386763                       # Time in different power states
system.mem_ctrls0_1.memoryStateTime::ACT    941530008                       # Time in different power states
system.mem_ctrls0_1.memoryStateTime::ACT_PDN  29172106900                       # Time in different power states
system.mem_ctrls1.pwrStateResidencyTicks::UNDEFINED 176567662895697                       # Cumulative time (in ticks) in various power states
system.mem_ctrls1.bytes_read::cpu.inst            192                       # Number of bytes read from this memory
system.mem_ctrls1.bytes_read::cpu.data            128                       # Number of bytes read from this memory
system.mem_ctrls1.bytes_read::switch_cpus.inst        48896                       # Number of bytes read from this memory
system.mem_ctrls1.bytes_read::switch_cpus.data      2280192                       # Number of bytes read from this memory
system.mem_ctrls1.bytes_read::switch_cpus_1.inst        12864                       # Number of bytes read from this memory
system.mem_ctrls1.bytes_read::switch_cpus_1.data       221504                       # Number of bytes read from this memory
system.mem_ctrls1.bytes_read::total           2563776                       # Number of bytes read from this memory
system.mem_ctrls1.bytes_inst_read::cpu.inst          192                       # Number of instructions bytes read from this memory
system.mem_ctrls1.bytes_inst_read::switch_cpus.inst        48896                       # Number of instructions bytes read from this memory
system.mem_ctrls1.bytes_inst_read::switch_cpus_1.inst        12864                       # Number of instructions bytes read from this memory
system.mem_ctrls1.bytes_inst_read::total        61952                       # Number of instructions bytes read from this memory
system.mem_ctrls1.bytes_written::writebacks        76288                       # Number of bytes written to this memory
system.mem_ctrls1.bytes_written::total          76288                       # Number of bytes written to this memory
system.mem_ctrls1.num_reads::cpu.inst               3                       # Number of read requests responded to by this memory
system.mem_ctrls1.num_reads::cpu.data               2                       # Number of read requests responded to by this memory
system.mem_ctrls1.num_reads::switch_cpus.inst          764                       # Number of read requests responded to by this memory
system.mem_ctrls1.num_reads::switch_cpus.data        35628                       # Number of read requests responded to by this memory
system.mem_ctrls1.num_reads::switch_cpus_1.inst          201                       # Number of read requests responded to by this memory
system.mem_ctrls1.num_reads::switch_cpus_1.data         3461                       # Number of read requests responded to by this memory
system.mem_ctrls1.num_reads::total              40059                       # Number of read requests responded to by this memory
system.mem_ctrls1.num_writes::writebacks         1192                       # Number of write requests responded to by this memory
system.mem_ctrls1.num_writes::total              1192                       # Number of write requests responded to by this memory
system.mem_ctrls1.bw_read::cpu.inst               189                       # Total read bandwidth from this memory (bytes/s)
system.mem_ctrls1.bw_read::cpu.data               126                       # Total read bandwidth from this memory (bytes/s)
system.mem_ctrls1.bw_read::switch_cpus.inst        48108                       # Total read bandwidth from this memory (bytes/s)
system.mem_ctrls1.bw_read::switch_cpus.data      2243447                       # Total read bandwidth from this memory (bytes/s)
system.mem_ctrls1.bw_read::switch_cpus_1.inst        12657                       # Total read bandwidth from this memory (bytes/s)
system.mem_ctrls1.bw_read::switch_cpus_1.data       217935                       # Total read bandwidth from this memory (bytes/s)
system.mem_ctrls1.bw_read::total              2522461                       # Total read bandwidth from this memory (bytes/s)
system.mem_ctrls1.bw_inst_read::cpu.inst          189                       # Instruction read bandwidth from this memory (bytes/s)
system.mem_ctrls1.bw_inst_read::switch_cpus.inst        48108                       # Instruction read bandwidth from this memory (bytes/s)
system.mem_ctrls1.bw_inst_read::switch_cpus_1.inst        12657                       # Instruction read bandwidth from this memory (bytes/s)
system.mem_ctrls1.bw_inst_read::total           60954                       # Instruction read bandwidth from this memory (bytes/s)
system.mem_ctrls1.bw_write::writebacks          75059                       # Write bandwidth from this memory (bytes/s)
system.mem_ctrls1.bw_write::total               75059                       # Write bandwidth from this memory (bytes/s)
system.mem_ctrls1.bw_total::writebacks          75059                       # Total bandwidth to/from this memory (bytes/s)
system.mem_ctrls1.bw_total::cpu.inst              189                       # Total bandwidth to/from this memory (bytes/s)
system.mem_ctrls1.bw_total::cpu.data              126                       # Total bandwidth to/from this memory (bytes/s)
system.mem_ctrls1.bw_total::switch_cpus.inst        48108                       # Total bandwidth to/from this memory (bytes/s)
system.mem_ctrls1.bw_total::switch_cpus.data      2243447                       # Total bandwidth to/from this memory (bytes/s)
system.mem_ctrls1.bw_total::switch_cpus_1.inst        12657                       # Total bandwidth to/from this memory (bytes/s)
system.mem_ctrls1.bw_total::switch_cpus_1.data       217935                       # Total bandwidth to/from this memory (bytes/s)
system.mem_ctrls1.bw_total::total             2597520                       # Total bandwidth to/from this memory (bytes/s)
system.mem_ctrls1.readReqs                      40059                       # Number of read requests accepted
system.mem_ctrls1.writeReqs                      1192                       # Number of write requests accepted
system.mem_ctrls1.readBursts                    40059                       # Number of DRAM read bursts, including those serviced by the write queue
system.mem_ctrls1.writeBursts                    1192                       # Number of DRAM write bursts, including those merged in the write queue
system.mem_ctrls1.bytesReadDRAM               2531072                       # Total number of bytes read from DRAM
system.mem_ctrls1.bytesReadWrQ                  32704                       # Total number of bytes read from write queue
system.mem_ctrls1.bytesWritten                  74560                       # Total number of bytes written to DRAM
system.mem_ctrls1.bytesReadSys                2563776                       # Total read bytes from the system interface side
system.mem_ctrls1.bytesWrittenSys               76288                       # Total written bytes from the system interface side
system.mem_ctrls1.servicedByWrQ                   511                       # Number of DRAM read bursts serviced by the write queue
system.mem_ctrls1.mergedWrBursts                    2                       # Number of DRAM write bursts merged with an existing one
system.mem_ctrls1.neitherReadNorWriteReqs            0                       # Number of requests that are neither read nor write
system.mem_ctrls1.perBankRdBursts::0             2502                       # Per bank write bursts
system.mem_ctrls1.perBankRdBursts::1             2190                       # Per bank write bursts
system.mem_ctrls1.perBankRdBursts::2             2246                       # Per bank write bursts
system.mem_ctrls1.perBankRdBursts::3             2433                       # Per bank write bursts
system.mem_ctrls1.perBankRdBursts::4             2247                       # Per bank write bursts
system.mem_ctrls1.perBankRdBursts::5             2382                       # Per bank write bursts
system.mem_ctrls1.perBankRdBursts::6             2588                       # Per bank write bursts
system.mem_ctrls1.perBankRdBursts::7             2482                       # Per bank write bursts
system.mem_ctrls1.perBankRdBursts::8             2532                       # Per bank write bursts
system.mem_ctrls1.perBankRdBursts::9             2571                       # Per bank write bursts
system.mem_ctrls1.perBankRdBursts::10            2620                       # Per bank write bursts
system.mem_ctrls1.perBankRdBursts::11            2453                       # Per bank write bursts
system.mem_ctrls1.perBankRdBursts::12            2581                       # Per bank write bursts
system.mem_ctrls1.perBankRdBursts::13            2490                       # Per bank write bursts
system.mem_ctrls1.perBankRdBursts::14            2768                       # Per bank write bursts
system.mem_ctrls1.perBankRdBursts::15            2463                       # Per bank write bursts
system.mem_ctrls1.perBankWrBursts::0               67                       # Per bank write bursts
system.mem_ctrls1.perBankWrBursts::1               33                       # Per bank write bursts
system.mem_ctrls1.perBankWrBursts::2               43                       # Per bank write bursts
system.mem_ctrls1.perBankWrBursts::3               41                       # Per bank write bursts
system.mem_ctrls1.perBankWrBursts::4               68                       # Per bank write bursts
system.mem_ctrls1.perBankWrBursts::5               37                       # Per bank write bursts
system.mem_ctrls1.perBankWrBursts::6              119                       # Per bank write bursts
system.mem_ctrls1.perBankWrBursts::7               80                       # Per bank write bursts
system.mem_ctrls1.perBankWrBursts::8              104                       # Per bank write bursts
system.mem_ctrls1.perBankWrBursts::9               38                       # Per bank write bursts
system.mem_ctrls1.perBankWrBursts::10              57                       # Per bank write bursts
system.mem_ctrls1.perBankWrBursts::11              98                       # Per bank write bursts
system.mem_ctrls1.perBankWrBursts::12              88                       # Per bank write bursts
system.mem_ctrls1.perBankWrBursts::13              64                       # Per bank write bursts
system.mem_ctrls1.perBankWrBursts::14             175                       # Per bank write bursts
system.mem_ctrls1.perBankWrBursts::15              53                       # Per bank write bursts
system.mem_ctrls1.numRdRetry                        0                       # Number of times read queue was full causing retry
system.mem_ctrls1.numWrRetry                        0                       # Number of times write queue was full causing retry
system.mem_ctrls1.totGap                 1016341538436                       # Total gap between requests
system.mem_ctrls1.readPktSize::0                    0                       # Read request sizes (log2)
system.mem_ctrls1.readPktSize::1                    0                       # Read request sizes (log2)
system.mem_ctrls1.readPktSize::2                    0                       # Read request sizes (log2)
system.mem_ctrls1.readPktSize::3                    0                       # Read request sizes (log2)
system.mem_ctrls1.readPktSize::4                    0                       # Read request sizes (log2)
system.mem_ctrls1.readPktSize::5                    0                       # Read request sizes (log2)
system.mem_ctrls1.readPktSize::6                40059                       # Read request sizes (log2)
system.mem_ctrls1.writePktSize::0                   0                       # Write request sizes (log2)
system.mem_ctrls1.writePktSize::1                   0                       # Write request sizes (log2)
system.mem_ctrls1.writePktSize::2                   0                       # Write request sizes (log2)
system.mem_ctrls1.writePktSize::3                   0                       # Write request sizes (log2)
system.mem_ctrls1.writePktSize::4                   0                       # Write request sizes (log2)
system.mem_ctrls1.writePktSize::5                   0                       # Write request sizes (log2)
system.mem_ctrls1.writePktSize::6                1192                       # Write request sizes (log2)
system.mem_ctrls1.rdQLenPdf::0                  39411                       # What read queue length does an incoming req see
system.mem_ctrls1.rdQLenPdf::1                    133                       # What read queue length does an incoming req see
system.mem_ctrls1.rdQLenPdf::2                      4                       # What read queue length does an incoming req see
system.mem_ctrls1.rdQLenPdf::3                      0                       # What read queue length does an incoming req see
system.mem_ctrls1.rdQLenPdf::4                      0                       # What read queue length does an incoming req see
system.mem_ctrls1.rdQLenPdf::5                      0                       # What read queue length does an incoming req see
system.mem_ctrls1.rdQLenPdf::6                      0                       # What read queue length does an incoming req see
system.mem_ctrls1.rdQLenPdf::7                      0                       # What read queue length does an incoming req see
system.mem_ctrls1.rdQLenPdf::8                      0                       # What read queue length does an incoming req see
system.mem_ctrls1.rdQLenPdf::9                      0                       # What read queue length does an incoming req see
system.mem_ctrls1.rdQLenPdf::10                     0                       # What read queue length does an incoming req see
system.mem_ctrls1.rdQLenPdf::11                     0                       # What read queue length does an incoming req see
system.mem_ctrls1.rdQLenPdf::12                     0                       # What read queue length does an incoming req see
system.mem_ctrls1.rdQLenPdf::13                     0                       # What read queue length does an incoming req see
system.mem_ctrls1.rdQLenPdf::14                     0                       # What read queue length does an incoming req see
system.mem_ctrls1.rdQLenPdf::15                     0                       # What read queue length does an incoming req see
system.mem_ctrls1.rdQLenPdf::16                     0                       # What read queue length does an incoming req see
system.mem_ctrls1.rdQLenPdf::17                     0                       # What read queue length does an incoming req see
system.mem_ctrls1.rdQLenPdf::18                     0                       # What read queue length does an incoming req see
system.mem_ctrls1.rdQLenPdf::19                     0                       # What read queue length does an incoming req see
system.mem_ctrls1.rdQLenPdf::20                     0                       # What read queue length does an incoming req see
system.mem_ctrls1.rdQLenPdf::21                     0                       # What read queue length does an incoming req see
system.mem_ctrls1.rdQLenPdf::22                     0                       # What read queue length does an incoming req see
system.mem_ctrls1.rdQLenPdf::23                     0                       # What read queue length does an incoming req see
system.mem_ctrls1.rdQLenPdf::24                     0                       # What read queue length does an incoming req see
system.mem_ctrls1.rdQLenPdf::25                     0                       # What read queue length does an incoming req see
system.mem_ctrls1.rdQLenPdf::26                     0                       # What read queue length does an incoming req see
system.mem_ctrls1.rdQLenPdf::27                     0                       # What read queue length does an incoming req see
system.mem_ctrls1.rdQLenPdf::28                     0                       # What read queue length does an incoming req see
system.mem_ctrls1.rdQLenPdf::29                     0                       # What read queue length does an incoming req see
system.mem_ctrls1.rdQLenPdf::30                     0                       # What read queue length does an incoming req see
system.mem_ctrls1.rdQLenPdf::31                     0                       # What read queue length does an incoming req see
system.mem_ctrls1.wrQLenPdf::0                      2                       # What write queue length does an incoming req see
system.mem_ctrls1.wrQLenPdf::1                      2                       # What write queue length does an incoming req see
system.mem_ctrls1.wrQLenPdf::2                      2                       # What write queue length does an incoming req see
system.mem_ctrls1.wrQLenPdf::3                      2                       # What write queue length does an incoming req see
system.mem_ctrls1.wrQLenPdf::4                      2                       # What write queue length does an incoming req see
system.mem_ctrls1.wrQLenPdf::5                      2                       # What write queue length does an incoming req see
system.mem_ctrls1.wrQLenPdf::6                      2                       # What write queue length does an incoming req see
system.mem_ctrls1.wrQLenPdf::7                      2                       # What write queue length does an incoming req see
system.mem_ctrls1.wrQLenPdf::8                      2                       # What write queue length does an incoming req see
system.mem_ctrls1.wrQLenPdf::9                      2                       # What write queue length does an incoming req see
system.mem_ctrls1.wrQLenPdf::10                     2                       # What write queue length does an incoming req see
system.mem_ctrls1.wrQLenPdf::11                     2                       # What write queue length does an incoming req see
system.mem_ctrls1.wrQLenPdf::12                     2                       # What write queue length does an incoming req see
system.mem_ctrls1.wrQLenPdf::13                     2                       # What write queue length does an incoming req see
system.mem_ctrls1.wrQLenPdf::14                     2                       # What write queue length does an incoming req see
system.mem_ctrls1.wrQLenPdf::15                    60                       # What write queue length does an incoming req see
system.mem_ctrls1.wrQLenPdf::16                    60                       # What write queue length does an incoming req see
system.mem_ctrls1.wrQLenPdf::17                    66                       # What write queue length does an incoming req see
system.mem_ctrls1.wrQLenPdf::18                    66                       # What write queue length does an incoming req see
system.mem_ctrls1.wrQLenPdf::19                    66                       # What write queue length does an incoming req see
system.mem_ctrls1.wrQLenPdf::20                    66                       # What write queue length does an incoming req see
system.mem_ctrls1.wrQLenPdf::21                    66                       # What write queue length does an incoming req see
system.mem_ctrls1.wrQLenPdf::22                    66                       # What write queue length does an incoming req see
system.mem_ctrls1.wrQLenPdf::23                    65                       # What write queue length does an incoming req see
system.mem_ctrls1.wrQLenPdf::24                    66                       # What write queue length does an incoming req see
system.mem_ctrls1.wrQLenPdf::25                    64                       # What write queue length does an incoming req see
system.mem_ctrls1.wrQLenPdf::26                    64                       # What write queue length does an incoming req see
system.mem_ctrls1.wrQLenPdf::27                    64                       # What write queue length does an incoming req see
system.mem_ctrls1.wrQLenPdf::28                    64                       # What write queue length does an incoming req see
system.mem_ctrls1.wrQLenPdf::29                    64                       # What write queue length does an incoming req see
system.mem_ctrls1.wrQLenPdf::30                    64                       # What write queue length does an incoming req see
system.mem_ctrls1.wrQLenPdf::31                    64                       # What write queue length does an incoming req see
system.mem_ctrls1.wrQLenPdf::32                    64                       # What write queue length does an incoming req see
system.mem_ctrls1.wrQLenPdf::33                     1                       # What write queue length does an incoming req see
system.mem_ctrls1.wrQLenPdf::34                     0                       # What write queue length does an incoming req see
system.mem_ctrls1.wrQLenPdf::35                     0                       # What write queue length does an incoming req see
system.mem_ctrls1.wrQLenPdf::36                     0                       # What write queue length does an incoming req see
system.mem_ctrls1.wrQLenPdf::37                     0                       # What write queue length does an incoming req see
system.mem_ctrls1.wrQLenPdf::38                     0                       # What write queue length does an incoming req see
system.mem_ctrls1.wrQLenPdf::39                     0                       # What write queue length does an incoming req see
system.mem_ctrls1.wrQLenPdf::40                     0                       # What write queue length does an incoming req see
system.mem_ctrls1.wrQLenPdf::41                     0                       # What write queue length does an incoming req see
system.mem_ctrls1.wrQLenPdf::42                     0                       # What write queue length does an incoming req see
system.mem_ctrls1.wrQLenPdf::43                     0                       # What write queue length does an incoming req see
system.mem_ctrls1.wrQLenPdf::44                     0                       # What write queue length does an incoming req see
system.mem_ctrls1.wrQLenPdf::45                     0                       # What write queue length does an incoming req see
system.mem_ctrls1.wrQLenPdf::46                     0                       # What write queue length does an incoming req see
system.mem_ctrls1.wrQLenPdf::47                     0                       # What write queue length does an incoming req see
system.mem_ctrls1.wrQLenPdf::48                     0                       # What write queue length does an incoming req see
system.mem_ctrls1.wrQLenPdf::49                     0                       # What write queue length does an incoming req see
system.mem_ctrls1.wrQLenPdf::50                     0                       # What write queue length does an incoming req see
system.mem_ctrls1.wrQLenPdf::51                     0                       # What write queue length does an incoming req see
system.mem_ctrls1.wrQLenPdf::52                     0                       # What write queue length does an incoming req see
system.mem_ctrls1.wrQLenPdf::53                     0                       # What write queue length does an incoming req see
system.mem_ctrls1.wrQLenPdf::54                     0                       # What write queue length does an incoming req see
system.mem_ctrls1.wrQLenPdf::55                     0                       # What write queue length does an incoming req see
system.mem_ctrls1.wrQLenPdf::56                     0                       # What write queue length does an incoming req see
system.mem_ctrls1.wrQLenPdf::57                     0                       # What write queue length does an incoming req see
system.mem_ctrls1.wrQLenPdf::58                     0                       # What write queue length does an incoming req see
system.mem_ctrls1.wrQLenPdf::59                     0                       # What write queue length does an incoming req see
system.mem_ctrls1.wrQLenPdf::60                     0                       # What write queue length does an incoming req see
system.mem_ctrls1.wrQLenPdf::61                     0                       # What write queue length does an incoming req see
system.mem_ctrls1.wrQLenPdf::62                     0                       # What write queue length does an incoming req see
system.mem_ctrls1.wrQLenPdf::63                     0                       # What write queue length does an incoming req see
system.mem_ctrls1.bytesPerActivate::samples        14516                       # Bytes accessed per row activation
system.mem_ctrls1.bytesPerActivate::mean   179.500689                       # Bytes accessed per row activation
system.mem_ctrls1.bytesPerActivate::gmean   124.918443                       # Bytes accessed per row activation
system.mem_ctrls1.bytesPerActivate::stdev   199.275767                       # Bytes accessed per row activation
system.mem_ctrls1.bytesPerActivate::0-127         6809     46.91%     46.91% # Bytes accessed per row activation
system.mem_ctrls1.bytesPerActivate::128-255         4796     33.04%     79.95% # Bytes accessed per row activation
system.mem_ctrls1.bytesPerActivate::256-383         1095      7.54%     87.49% # Bytes accessed per row activation
system.mem_ctrls1.bytesPerActivate::384-511          834      5.75%     93.24% # Bytes accessed per row activation
system.mem_ctrls1.bytesPerActivate::512-639          172      1.18%     94.42% # Bytes accessed per row activation
system.mem_ctrls1.bytesPerActivate::640-767          154      1.06%     95.48% # Bytes accessed per row activation
system.mem_ctrls1.bytesPerActivate::768-895          162      1.12%     96.60% # Bytes accessed per row activation
system.mem_ctrls1.bytesPerActivate::896-1023          267      1.84%     98.44% # Bytes accessed per row activation
system.mem_ctrls1.bytesPerActivate::1024-1151          227      1.56%    100.00% # Bytes accessed per row activation
system.mem_ctrls1.bytesPerActivate::total        14516                       # Bytes accessed per row activation
system.mem_ctrls1.rdPerTurnAround::samples           65                       # Reads before turning the bus around for writes
system.mem_ctrls1.rdPerTurnAround::mean    606.800000                       # Reads before turning the bus around for writes
system.mem_ctrls1.rdPerTurnAround::gmean   125.242371                       # Reads before turning the bus around for writes
system.mem_ctrls1.rdPerTurnAround::stdev  3634.956337                       # Reads before turning the bus around for writes
system.mem_ctrls1.rdPerTurnAround::0-1023           64     98.46%     98.46% # Reads before turning the bus around for writes
system.mem_ctrls1.rdPerTurnAround::28672-29695            1      1.54%    100.00% # Reads before turning the bus around for writes
system.mem_ctrls1.rdPerTurnAround::total           65                       # Reads before turning the bus around for writes
system.mem_ctrls1.wrPerTurnAround::samples           65                       # Writes before turning the bus around for reads
system.mem_ctrls1.wrPerTurnAround::mean     17.923077                       # Writes before turning the bus around for reads
system.mem_ctrls1.wrPerTurnAround::gmean    17.904196                       # Writes before turning the bus around for reads
system.mem_ctrls1.wrPerTurnAround::stdev     0.853443                       # Writes before turning the bus around for reads
system.mem_ctrls1.wrPerTurnAround::16               5      7.69%      7.69% # Writes before turning the bus around for reads
system.mem_ctrls1.wrPerTurnAround::17               1      1.54%      9.23% # Writes before turning the bus around for reads
system.mem_ctrls1.wrPerTurnAround::18              57     87.69%     96.92% # Writes before turning the bus around for reads
system.mem_ctrls1.wrPerTurnAround::19               1      1.54%     98.46% # Writes before turning the bus around for reads
system.mem_ctrls1.wrPerTurnAround::23               1      1.54%    100.00% # Writes before turning the bus around for reads
system.mem_ctrls1.wrPerTurnAround::total           65                       # Writes before turning the bus around for reads
system.mem_ctrls1.totQLat                  3068568595                       # Total ticks spent queuing
system.mem_ctrls1.totMemAccLat             3810093595                       # Total ticks spent from burst creation until serviced by the DRAM
system.mem_ctrls1.totBusLat                 197740000                       # Total ticks spent in databus transfers
system.mem_ctrls1.avgQLat                    77590.99                       # Average queueing delay per DRAM burst
system.mem_ctrls1.avgBusLat                   5000.00                       # Average bus latency per DRAM burst
system.mem_ctrls1.avgMemAccLat               96340.99                       # Average memory access latency per DRAM burst
system.mem_ctrls1.avgRdBW                        2.49                       # Average DRAM read bandwidth in MiByte/s
system.mem_ctrls1.avgWrBW                        0.07                       # Average achieved write bandwidth in MiByte/s
system.mem_ctrls1.avgRdBWSys                     2.52                       # Average system read bandwidth in MiByte/s
system.mem_ctrls1.avgWrBWSys                     0.08                       # Average system write bandwidth in MiByte/s
system.mem_ctrls1.peakBW                     12800.00                       # Theoretical peak bandwidth in MiByte/s
system.mem_ctrls1.busUtil                        0.02                       # Data bus utilization in percentage
system.mem_ctrls1.busUtilRead                    0.02                       # Data bus utilization in percentage for reads
system.mem_ctrls1.busUtilWrite                   0.00                       # Data bus utilization in percentage for writes
system.mem_ctrls1.avgRdQLen                      1.00                       # Average read queue length when enqueuing
system.mem_ctrls1.avgWrQLen                     13.17                       # Average write queue length when enqueuing
system.mem_ctrls1.readRowHits                   25982                       # Number of row buffer hits during reads
system.mem_ctrls1.writeRowHits                    215                       # Number of row buffer hits during writes
system.mem_ctrls1.readRowHitRate                65.70                       # Row buffer hit rate for reads
system.mem_ctrls1.writeRowHitRate               18.07                       # Row buffer hit rate for writes
system.mem_ctrls1.avgGap                  24637985.47                       # Average gap between requests
system.mem_ctrls1.pageHitRate                   64.31                       # Row buffer hit rate, read and write combined
system.mem_ctrls1_0.actEnergy                46602780                       # Energy for activate commands per rank (pJ)
system.mem_ctrls1_0.preEnergy                24769965                       # Energy for precharge commands per rank (pJ)
system.mem_ctrls1_0.readEnergy              136159800                       # Energy for read commands per rank (pJ)
system.mem_ctrls1_0.writeEnergy               2547360                       # Energy for write commands per rank (pJ)
system.mem_ctrls1_0.refreshEnergy        4947852000.000001                       # Energy for refresh commands per rank (pJ)
system.mem_ctrls1_0.actBackEnergy          1320340590                       # Energy for active background per rank (pJ)
system.mem_ctrls1_0.preBackEnergy           297537600                       # Energy for precharge background per rank (pJ)
system.mem_ctrls1_0.actPowerDownEnergy    11069050590                       # Energy for active power-down per rank (pJ)
system.mem_ctrls1_0.prePowerDownEnergy     7177024800                       # Energy for precharge power-down per rank (pJ)
system.mem_ctrls1_0.selfRefreshEnergy    233961500115                       # Energy for self refresh per rank (pJ)
system.mem_ctrls1_0.totalEnergy          258986668680                       # Total energy per rank (pJ)
system.mem_ctrls1_0.averagePower           254.813141                       # Core power per rank (mW)
system.mem_ctrls1_0.totalIdleTime        1012680027148                       # Total Idle time Per DRAM Rank
system.mem_ctrls1_0.memoryStateTime::IDLE    606786341                       # Time in different power states
system.mem_ctrls1_0.memoryStateTime::REF   2106536000                       # Time in different power states
system.mem_ctrls1_0.memoryStateTime::SREF 969736747450                       # Time in different power states
system.mem_ctrls1_0.memoryStateTime::PRE_PDN  18690172101                       # Time in different power states
system.mem_ctrls1_0.memoryStateTime::ACT    964312099                       # Time in different power states
system.mem_ctrls1_0.memoryStateTime::ACT_PDN  24274219839                       # Time in different power states
system.mem_ctrls1_1.actEnergy                57041460                       # Energy for activate commands per rank (pJ)
system.mem_ctrls1_1.preEnergy                30318255                       # Energy for precharge commands per rank (pJ)
system.mem_ctrls1_1.readEnergy              146212920                       # Energy for read commands per rank (pJ)
system.mem_ctrls1_1.writeEnergy               3533940                       # Energy for write commands per rank (pJ)
system.mem_ctrls1_1.refreshEnergy        6029003760.000001                       # Energy for refresh commands per rank (pJ)
system.mem_ctrls1_1.actBackEnergy          1536115230                       # Energy for active background per rank (pJ)
system.mem_ctrls1_1.preBackEnergy           365627520                       # Energy for precharge background per rank (pJ)
system.mem_ctrls1_1.actPowerDownEnergy    13369398450                       # Energy for active power-down per rank (pJ)
system.mem_ctrls1_1.prePowerDownEnergy     9004779360                       # Energy for precharge power-down per rank (pJ)
system.mem_ctrls1_1.selfRefreshEnergy    231699319920                       # Energy for self refresh per rank (pJ)
system.mem_ctrls1_1.totalEnergy          262244733825                       # Total energy per rank (pJ)
system.mem_ctrls1_1.averagePower           258.018703                       # Core power per rank (mW)
system.mem_ctrls1_1.totalIdleTime        1011889533489                       # Total Idle time Per DRAM Rank
system.mem_ctrls1_1.memoryStateTime::IDLE    745623966                       # Time in different power states
system.mem_ctrls1_1.memoryStateTime::REF   2566594000                       # Time in different power states
system.mem_ctrls1_1.memoryStateTime::SREF 959281596330                       # Time in different power states
system.mem_ctrls1_1.memoryStateTime::PRE_PDN  23449951505                       # Time in different power states
system.mem_ctrls1_1.memoryStateTime::ACT   1016142374                       # Time in different power states
system.mem_ctrls1_1.memoryStateTime::ACT_PDN  29318865655                       # Time in different power states
system.pwrStateResidencyTicks::UNDEFINED 176567662895697                       # Cumulative time (in ticks) in various power states
system.cpu.branchPred.lookups                       4                       # Number of BP lookups
system.cpu.branchPred.condPredicted                 2                       # Number of conditional branches predicted
system.cpu.branchPred.condIncorrect                 1                       # Number of conditional branches incorrect
system.cpu.branchPred.BTBLookups                    2                       # Number of BTB lookups
system.cpu.branchPred.BTBHits                       0                       # Number of BTB hits
system.cpu.branchPred.BTBCorrect                    0                       # Number of correct BTB predictions (this stat may not work properly.
system.cpu.branchPred.BTBHitPct              0.000000                       # BTB Hit Percentage
system.cpu.branchPred.usedRAS                       0                       # Number of times the RAS was used to get a target.
system.cpu.branchPred.RASInCorrect                  0                       # Number of incorrect RAS predictions.
system.cpu.branchPred.indirectLookups               0                       # Number of indirect predictor lookups.
system.cpu.branchPred.indirectHits                  0                       # Number of indirect target hits.
system.cpu.branchPred.indirectMisses                0                       # Number of indirect misses.
system.cpu.branchPredindirectMispredicted            0                       # Number of mispredicted indirect branches.
system.cpu_voltage_domain.voltage                   1                       # Voltage in Volts
system.cpu_clk_domain.clock                       333                       # Clock period in ticks
system.cpu.dtb.fetch_hits                           0                       # ITB hits
system.cpu.dtb.fetch_misses                         0                       # ITB misses
system.cpu.dtb.fetch_acv                            0                       # ITB acv
system.cpu.dtb.fetch_accesses                       0                       # ITB accesses
system.cpu.dtb.read_hits                           10                       # DTB read hits
system.cpu.dtb.read_misses                          0                       # DTB read misses
system.cpu.dtb.read_acv                             0                       # DTB read access violations
system.cpu.dtb.read_accesses                       10                       # DTB read accesses
system.cpu.dtb.write_hits                           0                       # DTB write hits
system.cpu.dtb.write_misses                         0                       # DTB write misses
system.cpu.dtb.write_acv                            0                       # DTB write access violations
system.cpu.dtb.write_accesses                       0                       # DTB write accesses
system.cpu.dtb.data_hits                           10                       # DTB hits
system.cpu.dtb.data_misses                          0                       # DTB misses
system.cpu.dtb.data_acv                             0                       # DTB access violations
system.cpu.dtb.data_accesses                       10                       # DTB accesses
system.cpu.itb.fetch_hits                           5                       # ITB hits
system.cpu.itb.fetch_misses                         0                       # ITB misses
system.cpu.itb.fetch_acv                            0                       # ITB acv
system.cpu.itb.fetch_accesses                       5                       # ITB accesses
system.cpu.itb.read_hits                            0                       # DTB read hits
system.cpu.itb.read_misses                          0                       # DTB read misses
system.cpu.itb.read_acv                             0                       # DTB read access violations
system.cpu.itb.read_accesses                        0                       # DTB read accesses
system.cpu.itb.write_hits                           0                       # DTB write hits
system.cpu.itb.write_misses                         0                       # DTB write misses
system.cpu.itb.write_acv                            0                       # DTB write access violations
system.cpu.itb.write_accesses                       0                       # DTB write accesses
system.cpu.itb.data_hits                            0                       # DTB hits
system.cpu.itb.data_misses                          0                       # DTB misses
system.cpu.itb.data_acv                             0                       # DTB access violations
system.cpu.itb.data_accesses                        0                       # DTB accesses
system.cpu.workload.num_syscalls                    0                       # Number of system calls
system.cpu.pwrStateResidencyTicks::ON    1016378773830                       # Cumulative time (in ticks) in various power states
system.cpu.numCycles                              729                       # number of cpu cycles simulated
system.cpu.numWorkItemsStarted                      0                       # number of work items this cpu started
system.cpu.numWorkItemsCompleted                    0                       # number of work items this cpu completed
system.cpu.fetch.icacheStallCycles                 49                       # Number of cycles fetch is stalled on an Icache miss
system.cpu.fetch.Insts                             32                       # Number of instructions fetch has processed
system.cpu.fetch.Branches                           4                       # Number of branches that fetch encountered
system.cpu.fetch.Cycles                             4                       # Number of cycles fetch has run and was not squashing or blocked
system.cpu.fetch.SquashCycles                       5                       # Number of cycles fetch has spent squashing
system.cpu.fetch.PendingDrainCycles                 7                       # Number of cycles fetch has spent waiting on pipes to drain
system.cpu.fetch.CacheLines                         5                       # Number of cache lines fetched
system.cpu.fetch.IcacheSquashes                     3                       # Number of outstanding Icache misses that were squashed
system.cpu.fetch.rateDist::samples                 62                       # Number of instructions fetched each cycle (Total)
system.cpu.fetch.rateDist::mean              0.516129                       # Number of instructions fetched each cycle (Total)
system.cpu.fetch.rateDist::stdev             1.981405                       # Number of instructions fetched each cycle (Total)
system.cpu.fetch.rateDist::underflows               0      0.00%      0.00% # Number of instructions fetched each cycle (Total)
system.cpu.fetch.rateDist::0                       58     93.55%     93.55% # Number of instructions fetched each cycle (Total)
system.cpu.fetch.rateDist::1                        0      0.00%     93.55% # Number of instructions fetched each cycle (Total)
system.cpu.fetch.rateDist::2                        0      0.00%     93.55% # Number of instructions fetched each cycle (Total)
system.cpu.fetch.rateDist::3                        0      0.00%     93.55% # Number of instructions fetched each cycle (Total)
system.cpu.fetch.rateDist::4                        0      0.00%     93.55% # Number of instructions fetched each cycle (Total)
system.cpu.fetch.rateDist::5                        0      0.00%     93.55% # Number of instructions fetched each cycle (Total)
system.cpu.fetch.rateDist::6                        0      0.00%     93.55% # Number of instructions fetched each cycle (Total)
system.cpu.fetch.rateDist::7                        0      0.00%     93.55% # Number of instructions fetched each cycle (Total)
system.cpu.fetch.rateDist::8                        4      6.45%    100.00% # Number of instructions fetched each cycle (Total)
system.cpu.fetch.rateDist::overflows                0      0.00%    100.00% # Number of instructions fetched each cycle (Total)
system.cpu.fetch.rateDist::min_value                0                       # Number of instructions fetched each cycle (Total)
system.cpu.fetch.rateDist::max_value                8                       # Number of instructions fetched each cycle (Total)
[...]
system.switch_cpus_1.iq.int_inst_queue_writes    223579971                       # Number of integer instruction queue writes
system.switch_cpus_1.iq.int_inst_queue_wakeup_accesses    206528654                       # Number of integer instruction queue wakeup accesses
system.switch_cpus_1.iq.fp_inst_queue_reads      2763829                       # Number of floating instruction queue reads
system.switch_cpus_1.iq.fp_inst_queue_writes      1435551                       # Number of floating instruction queue writes
system.switch_cpus_1.iq.fp_inst_queue_wakeup_accesses      1372048                       # Number of floating instruction queue wakeup accesses
system.switch_cpus_1.iq.int_alu_accesses    218513830                       # Number of integer alu accesses
system.switch_cpus_1.iq.fp_alu_accesses       1385677                       # Number of floating point alu accesses
system.switch_cpus_1.iew.lsq.thread0.forwLoads      2866687                       # Number of loads that had data forwarded from stores
system.switch_cpus_1.iew.lsq.thread0.invAddrLoads            0                       # Number of loads ignored due to an invalid address
system.switch_cpus_1.iew.lsq.thread0.squashedLoads      2623433                       # Number of loads squashed
system.switch_cpus_1.iew.lsq.thread0.ignoredResponses         6786                       # Number of memory responses ignored because the instruction is squashed
system.switch_cpus_1.iew.lsq.thread0.memOrderViolation        15986                       # Number of memory ordering violations
system.switch_cpus_1.iew.lsq.thread0.squashedStores       569481                       # Number of stores squashed
system.switch_cpus_1.iew.lsq.thread0.invAddrSwpfs            0                       # Number of software prefetches ignored due to an invalid address
system.switch_cpus_1.iew.lsq.thread0.blockedLoads            0                       # Number of blocked loads due to partial load-store forwarding
system.switch_cpus_1.iew.lsq.thread0.rescheduledLoads         1087                       # Number of loads that were rescheduled
system.switch_cpus_1.iew.lsq.thread0.cacheBlocked       423960                       # Number of times an access to memory failed due to the cache being blocked
system.switch_cpus_1.iew.iewIdleCycles              0                       # Number of cycles IEW is idle
system.switch_cpus_1.iew.iewSquashCycles       314083                       # Number of cycles IEW is squashing
system.switch_cpus_1.iew.iewBlockCycles       1625653                       # Number of cycles IEW is blocking
system.switch_cpus_1.iew.iewUnblockCycles      1760216                       # Number of cycles IEW is unblocking
system.switch_cpus_1.iew.iewDispatchedInsts    213678417                       # Number of instructions dispatched to IQ
system.switch_cpus_1.iew.iewDispSquashedInsts        56276                       # Number of squashed instructions skipped by dispatch
system.switch_cpus_1.iew.iewDispLoadInsts     72290908                       # Number of dispatched load instructions
system.switch_cpus_1.iew.iewDispStoreInsts     13479903                       # Number of dispatched store instructions
system.switch_cpus_1.iew.iewDispNonSpecInsts            0                       # Number of dispatched non-speculative instructions
system.switch_cpus_1.iew.iewIQFullEvents        11182                       # Number of times the IQ has become full, causing a stall
system.switch_cpus_1.iew.iewLSQFullEvents      1752819                       # Number of times the LSQ has become full, causing a stall
system.switch_cpus_1.iew.memOrderViolationEvents        15986                       # Number of memory order violations
system.switch_cpus_1.iew.predictedTakenIncorrect       222964                       # Number of branches that were predicted taken incorrectly
system.switch_cpus_1.iew.predictedNotTakenIncorrect        80920                       # Number of branches that were predicted not taken incorrectly
system.switch_cpus_1.iew.branchMispredicts       303884                       # Number of branch mispredicts detected at execute
system.switch_cpus_1.iew.iewExecutedInsts    208896406                       # Number of executed instructions
system.switch_cpus_1.iew.iewExecLoadInsts     72024717                       # Number of load instructions executed
system.switch_cpus_1.iew.iewExecSquashedInsts       520985                       # Number of squashed instructions skipped in execute
system.switch_cpus_1.iew.exec_swp                   0                       # number of swp insts executed
system.switch_cpus_1.iew.exec_nop             1178521                       # number of nop insts executed
system.switch_cpus_1.iew.exec_refs           85145377                       # number of memory reference insts executed
system.switch_cpus_1.iew.exec_branches       15236880                       # Number of branches executed
system.switch_cpus_1.iew.exec_stores         13120660                       # Number of stores executed
system.switch_cpus_1.iew.exec_rate           2.729448                       # Inst execution rate
system.switch_cpus_1.iew.wb_sent            208175121                       # cumulative count of insts sent to commit
system.switch_cpus_1.iew.wb_count           207900702                       # cumulative count of insts written-back
system.switch_cpus_1.iew.wb_producers       134168659                       # num instructions producing a value
system.switch_cpus_1.iew.wb_consumers       163853759                       # num instructions consuming a value
system.switch_cpus_1.iew.wb_rate             2.716438                       # insts written-back per cycle
system.switch_cpus_1.iew.wb_fanout           0.818832                       # average fanout of values written-back
system.switch_cpus_1.commit.commitSquashedInsts     12111254                       # The number of squashed insts skipped by commit
system.switch_cpus_1.commit.branchMispredicts       273998                       # The number of times a branch was mispredicted
system.switch_cpus_1.commit.committed_per_cycle::samples     74458554                       # Number of insts commited each cycle
system.switch_cpus_1.commit.committed_per_cycle::mean     2.700369                       # Number of insts commited each cycle
system.switch_cpus_1.commit.committed_per_cycle::stdev     3.180261                       # Number of insts commited each cycle
system.switch_cpus_1.commit.committed_per_cycle::underflows            0      0.00%      0.00% # Number of insts commited each cycle
system.switch_cpus_1.commit.committed_per_cycle::0     32074152     43.08%     43.08% # Number of insts commited each cycle
system.switch_cpus_1.commit.committed_per_cycle::1      9175917     12.32%     55.40% # Number of insts commited each cycle
system.switch_cpus_1.commit.committed_per_cycle::2      4782542      6.42%     61.82% # Number of insts commited each cycle
system.switch_cpus_1.commit.committed_per_cycle::3      3484834      4.68%     66.50% # Number of insts commited each cycle
system.switch_cpus_1.commit.committed_per_cycle::4      2543202      3.42%     69.92% # Number of insts commited each cycle
system.switch_cpus_1.commit.committed_per_cycle::5      3558235      4.78%     74.70% # Number of insts commited each cycle
system.switch_cpus_1.commit.committed_per_cycle::6      1571489      2.11%     76.81% # Number of insts commited each cycle
system.switch_cpus_1.commit.committed_per_cycle::7      3668299      4.93%     81.73% # Number of insts commited each cycle
system.switch_cpus_1.commit.committed_per_cycle::8     13599884     18.27%    100.00% # Number of insts commited each cycle
system.switch_cpus_1.commit.committed_per_cycle::overflows            0      0.00%    100.00% # Number of insts commited each cycle
system.switch_cpus_1.commit.committed_per_cycle::min_value            0                       # Number of insts commited each cycle
system.switch_cpus_1.commit.committed_per_cycle::max_value            8                       # Number of insts commited each cycle
system.switch_cpus_1.commit.committed_per_cycle::total     74458554                       # Number of insts commited each cycle
system.switch_cpus_1.commit.committedInsts    201065585                       # Number of instructions committed
system.switch_cpus_1.commit.committedOps    201065585                       # Number of ops (including micro ops) committed
system.switch_cpus_1.commit.swp_count               0                       # Number of s/w prefetches committed
system.switch_cpus_1.commit.refs             82577871                       # Number of memory references committed
system.switch_cpus_1.commit.loads            69667449                       # Number of loads committed
system.switch_cpus_1.commit.membars                 0                       # Number of memory barriers committed
system.switch_cpus_1.commit.branches         14245931                       # Number of branches committed
system.switch_cpus_1.commit.fp_insts          1340565                       # Number of committed floating point instructions.
system.switch_cpus_1.commit.int_insts       198509910                       # Number of committed integer instructions.
system.switch_cpus_1.commit.function_calls      2072159                       # Number of function calls committed.
system.switch_cpus_1.commit.op_class_0::No_OpClass      1225977      0.61%      0.61% # Class of committed instruction
system.switch_cpus_1.commit.op_class_0::IntAlu    115514890     57.45%     58.06% # Class of committed instruction
system.switch_cpus_1.commit.op_class_0::IntMult       939115      0.47%     58.53% # Class of committed instruction
system.switch_cpus_1.commit.op_class_0::IntDiv            0      0.00%     58.53% # Class of committed instruction
system.switch_cpus_1.commit.op_class_0::FloatAdd       455806      0.23%     58.75% # Class of committed instruction
system.switch_cpus_1.commit.op_class_0::FloatCmp        10815      0.01%     58.76% # Class of committed instruction
system.switch_cpus_1.commit.op_class_0::FloatCvt       252849      0.13%     58.89% # Class of committed instruction
system.switch_cpus_1.commit.op_class_0::FloatMult         8058      0.00%     58.89% # Class of committed instruction
system.switch_cpus_1.commit.op_class_0::FloatMultAcc            0      0.00%     58.89% # Class of committed instruction
system.switch_cpus_1.commit.op_class_0::FloatDiv        80200      0.04%     58.93% # Class of committed instruction
system.switch_cpus_1.commit.op_class_0::FloatMisc            0      0.00%     58.93% # Class of committed instruction
system.switch_cpus_1.commit.op_class_0::FloatSqrt            4      0.00%     58.93% # Class of committed instruction
system.switch_cpus_1.commit.op_class_0::SimdAdd            0      0.00%     58.93% # Class of committed instruction
system.switch_cpus_1.commit.op_class_0::SimdAddAcc            0      0.00%     58.93% # Class of committed instruction
system.switch_cpus_1.commit.op_class_0::SimdAlu            0      0.00%     58.93% # Class of committed instruction
system.switch_cpus_1.commit.op_class_0::SimdCmp            0      0.00%     58.93% # Class of committed instruction
system.switch_cpus_1.commit.op_class_0::SimdCvt            0      0.00%     58.93% # Class of committed instruction
system.switch_cpus_1.commit.op_class_0::SimdMisc            0      0.00%     58.93% # Class of committed instruction
system.switch_cpus_1.commit.op_class_0::SimdMult            0      0.00%     58.93% # Class of committed instruction
system.switch_cpus_1.commit.op_class_0::SimdMultAcc            0      0.00%     58.93% # Class of committed instruction
system.switch_cpus_1.commit.op_class_0::SimdShift            0      0.00%     58.93% # Class of committed instruction
system.switch_cpus_1.commit.op_class_0::SimdShiftAcc            0      0.00%     58.93% # Class of committed instruction
system.switch_cpus_1.commit.op_class_0::SimdSqrt            0      0.00%     58.93% # Class of committed instruction
system.switch_cpus_1.commit.op_class_0::SimdFloatAdd            0      0.00%     58.93% # Class of committed instruction
system.switch_cpus_1.commit.op_class_0::SimdFloatAlu            0      0.00%     58.93% # Class of committed instruction
system.switch_cpus_1.commit.op_class_0::SimdFloatCmp            0      0.00%     58.93% # Class of committed instruction
system.switch_cpus_1.commit.op_class_0::SimdFloatCvt            0      0.00%     58.93% # Class of committed instruction
system.switch_cpus_1.commit.op_class_0::SimdFloatDiv            0      0.00%     58.93% # Class of committed instruction
system.switch_cpus_1.commit.op_class_0::SimdFloatMisc            0      0.00%     58.93% # Class of committed instruction
system.switch_cpus_1.commit.op_class_0::SimdFloatMult            0      0.00%     58.93% # Class of committed instruction
system.switch_cpus_1.commit.op_class_0::SimdFloatMultAcc            0      0.00%     58.93% # Class of committed instruction
system.switch_cpus_1.commit.op_class_0::SimdFloatSqrt            0      0.00%     58.93% # Class of committed instruction
system.switch_cpus_1.commit.op_class_0::MemRead     69394564     34.51%     93.44% # Class of committed instruction
system.switch_cpus_1.commit.op_class_0::MemWrite     12650474      6.29%     99.73% # Class of committed instruction
system.switch_cpus_1.commit.op_class_0::FloatMemRead       272885      0.14%     99.87% # Class of committed instruction
system.switch_cpus_1.commit.op_class_0::FloatMemWrite       259948      0.13%    100.00% # Class of committed instruction
system.switch_cpus_1.commit.op_class_0::IprAccess            0      0.00%    100.00% # Class of committed instruction
system.switch_cpus_1.commit.op_class_0::InstPrefetch            0      0.00%    100.00% # Class of committed instruction
system.switch_cpus_1.commit.op_class_0::total    201065585                       # Class of committed instruction
system.switch_cpus_1.commit.bw_lim_events     13599884                       # number cycles where commit BW limit reached
system.switch_cpus_1.rob.rob_reads          273670378                       # The number of ROB reads
system.switch_cpus_1.rob.rob_writes         428029921                       # The number of ROB writes
system.switch_cpus_1.timesIdled                 16539                       # Number of times that the entire CPU went into an idle state and unscheduled itself
system.switch_cpus_1.idleCycles                401662                       # Total number of cycles that the CPU has spent unscheduled due to idling
system.switch_cpus_1.committedInsts         200000000                       # Number of Instructions Simulated
system.switch_cpus_1.committedOps           200000000                       # Number of Ops (including micro ops) Simulated
system.switch_cpus_1.cpi                     0.382672                       # CPI: Cycles Per Instruction
system.switch_cpus_1.cpi_total               0.382672                       # CPI: Total CPI of All Threads
system.switch_cpus_1.ipc                     2.613207                       # IPC: Instructions Per Cycle
system.switch_cpus_1.ipc_total               2.613207                       # IPC: Total IPC of All Threads
system.switch_cpus_1.int_regfile_reads      305041909                       # number of integer regfile reads
system.switch_cpus_1.int_regfile_writes     180661964                       # number of integer regfile writes
system.switch_cpus_1.fp_regfile_reads          984459                       # number of floating regfile reads
system.switch_cpus_1.fp_regfile_writes         922803                       # number of floating regfile writes
system.switch_cpus_1.misc_regfile_reads        167195                       # number of misc regfile reads
system.switch_cpus_1.misc_regfile_writes        80196                       # number of misc regfile writes
system.tol3bus.snoop_filter.tot_requests      3293629                       # Total number of requests made to the snoop filter.
system.tol3bus.snoop_filter.hit_single_requests      1644530                       # Number of requests hitting in the snoop filter with a single holder of the requested data.
system.tol3bus.snoop_filter.hit_multi_requests            0                       # Number of requests hitting in the snoop filter with multiple (>1) holders of the requested data.
system.tol3bus.snoop_filter.tot_snoops            144                       # Total number of snoops made to the snoop filter.
system.tol3bus.snoop_filter.hit_single_snoops          144                       # Number of snoops hitting in the snoop filter with a single holder of the requested data.
system.tol3bus.snoop_filter.hit_multi_snoops            0                       # Number of snoops hitting in the snoop filter with multiple (>1) holders of the requested data.
system.tol3bus.pwrStateResidencyTicks::UNDEFINED 176567662895697                       # Cumulative time (in ticks) in various power states
system.tol3bus.trans_dist::ReadResp            978981                       # Transaction distribution
system.tol3bus.trans_dist::WritebackDirty      1268954                       # Transaction distribution
system.tol3bus.trans_dist::CleanEvict          389836                       # Transaction distribution
system.tol3bus.trans_dist::UpgradeReq               3                       # Transaction distribution
system.tol3bus.trans_dist::UpgradeResp              3                       # Transaction distribution
system.tol3bus.trans_dist::ReadExReq           670118                       # Transaction distribution
system.tol3bus.trans_dist::ReadExResp          670118                       # Transaction distribution
system.tol3bus.trans_dist::ReadSharedReq       978981                       # Transaction distribution
system.tol3bus.pkt_count_system.cpu.l2.mem_side::system.l3.cpu_side      4942731                       # Packet count per connected master and slave (bytes)
system.tol3bus.pkt_size_system.cpu.l2.mem_side::system.l3.cpu_side    186601856                       # Cumulative packet size per connected master and slave (bytes)
system.tol3bus.snoops                           14263                       # Total snoops (count)
system.tol3bus.snoopTraffic                    153536                       # Total snoop traffic (bytes)
system.tol3bus.snoop_fanout::samples          1663365                       # Request fanout histogram
system.tol3bus.snoop_fanout::mean            0.000087                       # Request fanout histogram
system.tol3bus.snoop_fanout::stdev           0.009304                       # Request fanout histogram
system.tol3bus.snoop_fanout::underflows             0      0.00%      0.00% # Request fanout histogram
system.tol3bus.snoop_fanout::0                1663221     99.99%     99.99% # Request fanout histogram
system.tol3bus.snoop_fanout::1                    144      0.01%    100.00% # Request fanout histogram
system.tol3bus.snoop_fanout::overflows              0      0.00%    100.00% # Request fanout histogram
system.tol3bus.snoop_fanout::min_value              0                       # Request fanout histogram
system.tol3bus.snoop_fanout::max_value              1                       # Request fanout histogram
system.tol3bus.snoop_fanout::total            1663365                       # Request fanout histogram
system.tol3bus.reqLayer0.occupancy         1518541272                       # Layer occupancy (ticks)
system.tol3bus.reqLayer0.utilization              0.1                       # Layer utilization (%)
system.tol3bus.respLayer0.occupancy        1098300933                       # Layer occupancy (ticks)
system.tol3bus.respLayer0.utilization             0.1                       # Layer utilization (%)

---------- End Simulation Statistics   ----------
