
---------- Begin Simulation Statistics ----------
sim_seconds                                  1.305990                       # Number of seconds simulated
sim_ticks                                1305989689680                       # Number of ticks simulated
final_tick                               31317403850730                       # Number of ticks from beginning of simulation (restored from checkpoints and never reset)
sim_freq                                 1000000000000                       # Frequency of simulated ticks
host_inst_rate                                 339579                       # Simulator instruction rate (inst/s)
host_op_rate                                   339579                       # Simulator op (including micro ops) rate (op/s)
host_tick_rate                              221743128                       # Simulator tick rate (ticks/s)
host_mem_usage                                2436660                       # Number of bytes of host memory used
host_seconds                                  5889.65                       # Real time elapsed on the host
sim_insts                                  2000000007                       # Number of instructions simulated
sim_ops                                    2000000007                       # Number of ops (including micro ops) simulated
system.voltage_domain.voltage                       1                       # Voltage in Volts
system.clk_domain.clock                          1000                       # Clock period in ticks
system.mem_ctrls0.pwrStateResidencyTicks::UNDEFINED 31317403850730                       # Cumulative time (in ticks) in various power states
system.mem_ctrls0.bytes_read::cpu.inst             64                       # Number of bytes read from this memory
system.mem_ctrls0.bytes_read::switch_cpus.inst       137728                       # Number of bytes read from this memory
system.mem_ctrls0.bytes_read::switch_cpus.data      3685248                       # Number of bytes read from this memory
system.mem_ctrls0.bytes_read::switch_cpus_1.inst       213760                       # Number of bytes read from this memory
system.mem_ctrls0.bytes_read::switch_cpus_1.data     12612800                       # Number of bytes read from this memory
system.mem_ctrls0.bytes_read::total          16649600                       # Number of bytes read from this memory
system.mem_ctrls0.bytes_inst_read::cpu.inst           64                       # Number of instructions bytes read from this memory
system.mem_ctrls0.bytes_inst_read::switch_cpus.inst       137728                       # Number of instructions bytes read from this memory
system.mem_ctrls0.bytes_inst_read::switch_cpus_1.inst       213760                       # Number of instructions bytes read from this memory
system.mem_ctrls0.bytes_inst_read::total       351552                       # Number of instructions bytes read from this memory
system.mem_ctrls0.bytes_written::writebacks      2760128                       # Number of bytes written to this memory
system.mem_ctrls0.bytes_written::total        2760128                       # Number of bytes written to this memory
system.mem_ctrls0.num_reads::cpu.inst               1                       # Number of read requests responded to by this memory
system.mem_ctrls0.num_reads::switch_cpus.inst         2152                       # Number of read requests responded to by this memory
system.mem_ctrls0.num_reads::switch_cpus.data        57582                       # Number of read requests responded to by this memory
system.mem_ctrls0.num_reads::switch_cpus_1.inst         3340                       # Number of read requests responded to by this memory
system.mem_ctrls0.num_reads::switch_cpus_1.data       197075                       # Number of read requests responded to by this memory
system.mem_ctrls0.num_reads::total             260150                       # Number of read requests responded to by this memory
system.mem_ctrls0.num_writes::writebacks        43127                       # Number of write requests responded to by this memory
system.mem_ctrls0.num_writes::total             43127                       # Number of write requests responded to by this memory
system.mem_ctrls0.bw_read::cpu.inst                49                       # Total read bandwidth from this memory (bytes/s)
system.mem_ctrls0.bw_read::switch_cpus.inst       105459                       # Total read bandwidth from this memory (bytes/s)
system.mem_ctrls0.bw_read::switch_cpus.data      2821805                       # Total read bandwidth from this memory (bytes/s)
system.mem_ctrls0.bw_read::switch_cpus_1.inst       163677                       # Total read bandwidth from this memory (bytes/s)
system.mem_ctrls0.bw_read::switch_cpus_1.data      9657657                       # Total read bandwidth from this memory (bytes/s)
system.mem_ctrls0.bw_read::total             12748646                       # Total read bandwidth from this memory (bytes/s)
system.mem_ctrls0.bw_inst_read::cpu.inst           49                       # Instruction read bandwidth from this memory (bytes/s)
system.mem_ctrls0.bw_inst_read::switch_cpus.inst       105459                       # Instruction read bandwidth from this memory (bytes/s)
system.mem_ctrls0.bw_inst_read::switch_cpus_1.inst       163677                       # Instruction read bandwidth from this memory (bytes/s)
system.mem_ctrls0.bw_inst_read::total          269184                       # Instruction read bandwidth from this memory (bytes/s)
system.mem_ctrls0.bw_write::writebacks        2113438                       # Write bandwidth from this memory (bytes/s)
system.mem_ctrls0.bw_write::total             2113438                       # Write bandwidth from this memory (bytes/s)
system.mem_ctrls0.bw_total::writebacks        2113438                       # Total bandwidth to/from this memory (bytes/s)
system.mem_ctrls0.bw_total::cpu.inst               49                       # Total bandwidth to/from this memory (bytes/s)
system.mem_ctrls0.bw_total::switch_cpus.inst       105459                       # Total bandwidth to/from this memory (bytes/s)
system.mem_ctrls0.bw_total::switch_cpus.data      2821805                       # Total bandwidth to/from this memory (bytes/s)
system.mem_ctrls0.bw_total::switch_cpus_1.inst       163677                       # Total bandwidth to/from this memory (bytes/s)
system.mem_ctrls0.bw_total::switch_cpus_1.data      9657657                       # Total bandwidth to/from this memory (bytes/s)
system.mem_ctrls0.bw_total::total            14862084                       # Total bandwidth to/from this memory (bytes/s)
system.mem_ctrls0.readReqs                     260150                       # Number of read requests accepted
system.mem_ctrls0.writeReqs                     43127                       # Number of write requests accepted
system.mem_ctrls0.readBursts                   260150                       # Number of DRAM read bursts, including those serviced by the write queue
system.mem_ctrls0.writeBursts                   43127                       # Number of DRAM write bursts, including those merged in the write queue
system.mem_ctrls0.bytesReadDRAM              16588288                       # Total number of bytes read from DRAM
system.mem_ctrls0.bytesReadWrQ                  61312                       # Total number of bytes read from write queue
system.mem_ctrls0.bytesWritten                2750400                       # Total number of bytes written to DRAM
system.mem_ctrls0.bytesReadSys               16649600                       # Total read bytes from the system interface side
system.mem_ctrls0.bytesWrittenSys             2760128                       # Total written bytes from the system interface side
system.mem_ctrls0.servicedByWrQ                   958                       # Number of DRAM read bursts serviced by the write queue
system.mem_ctrls0.mergedWrBursts                  123                       # Number of DRAM write bursts merged with an existing one
system.mem_ctrls0.neitherReadNorWriteReqs            0                       # Number of requests that are neither read nor write
system.mem_ctrls0.perBankRdBursts::0            15642                       # Per bank write bursts
system.mem_ctrls0.perBankRdBursts::1            15843                       # Per bank write bursts
system.mem_ctrls0.perBankRdBursts::2            17905                       # Per bank write bursts
system.mem_ctrls0.perBankRdBursts::3            17330                       # Per bank write bursts
system.mem_ctrls0.perBankRdBursts::4            15816                       # Per bank write bursts
system.mem_ctrls0.perBankRdBursts::5            14960                       # Per bank write bursts
system.mem_ctrls0.perBankRdBursts::6            15053                       # Per bank write bursts
system.mem_ctrls0.perBankRdBursts::7            15658                       # Per bank write bursts
system.mem_ctrls0.perBankRdBursts::8            16215                       # Per bank write bursts
system.mem_ctrls0.perBankRdBursts::9            15656                       # Per bank write bursts
system.mem_ctrls0.perBankRdBursts::10           15278                       # Per bank write bursts
system.mem_ctrls0.perBankRdBursts::11           14792                       # Per bank write bursts
system.mem_ctrls0.perBankRdBursts::12           18048                       # Per bank write bursts
system.mem_ctrls0.perBankRdBursts::13           15956                       # Per bank write bursts
system.mem_ctrls0.perBankRdBursts::14           16595                       # Per bank write bursts
system.mem_ctrls0.perBankRdBursts::15           18445                       # Per bank write bursts
system.mem_ctrls0.perBankWrBursts::0             2029                       # Per bank write bursts
system.mem_ctrls0.perBankWrBursts::1             2404                       # Per bank write bursts
system.mem_ctrls0.perBankWrBursts::2             2783                       # Per bank write bursts
system.mem_ctrls0.perBankWrBursts::3             2879                       # Per bank write bursts
system.mem_ctrls0.perBankWrBursts::4             2935                       # Per bank write bursts
system.mem_ctrls0.perBankWrBursts::5             2550                       # Per bank write bursts
system.mem_ctrls0.perBankWrBursts::6             2547                       # Per bank write bursts
system.mem_ctrls0.perBankWrBursts::7             2506                       # Per bank write bursts
system.mem_ctrls0.perBankWrBursts::8             2883                       # Per bank write bursts
system.mem_ctrls0.perBankWrBursts::9             2542                       # Per bank write bursts
system.mem_ctrls0.perBankWrBursts::10            2301                       # Per bank write bursts
system.mem_ctrls0.perBankWrBursts::11            2698                       # Per bank write bursts
system.mem_ctrls0.perBankWrBursts::12            3271                       # Per bank write bursts
system.mem_ctrls0.perBankWrBursts::13            2511                       # Per bank write bursts
system.mem_ctrls0.perBankWrBursts::14            3292                       # Per bank write bursts
system.mem_ctrls0.perBankWrBursts::15            2844                       # Per bank write bursts
system.mem_ctrls0.numRdRetry                        0                       # Number of times read queue was full causing retry
system.mem_ctrls0.numWrRetry                        0                       # Number of times write queue was full causing retry
system.mem_ctrls0.totGap                 1305563513616                       # Total gap between requests
system.mem_ctrls0.readPktSize::0                    0                       # Read request sizes (log2)
system.mem_ctrls0.readPktSize::1                    0                       # Read request sizes (log2)
system.mem_ctrls0.readPktSize::2                    0                       # Read request sizes (log2)
system.mem_ctrls0.readPktSize::3                    0                       # Read request sizes (log2)
system.mem_ctrls0.readPktSize::4                    0                       # Read request sizes (log2)
system.mem_ctrls0.readPktSize::5                    0                       # Read request sizes (log2)
system.mem_ctrls0.readPktSize::6               260150                       # Read request sizes (log2)
system.mem_ctrls0.writePktSize::0                   0                       # Write request sizes (log2)
system.mem_ctrls0.writePktSize::1                   0                       # Write request sizes (log2)
system.mem_ctrls0.writePktSize::2                   0                       # Write request sizes (log2)
system.mem_ctrls0.writePktSize::3                   0                       # Write request sizes (log2)
system.mem_ctrls0.writePktSize::4                   0                       # Write request sizes (log2)
system.mem_ctrls0.writePktSize::5                   0                       # Write request sizes (log2)
system.mem_ctrls0.writePktSize::6               43127                       # Write request sizes (log2)
system.mem_ctrls0.rdQLenPdf::0                 249178                       # What read queue length does an incoming req see
system.mem_ctrls0.rdQLenPdf::1                   9743                       # What read queue length does an incoming req see
system.mem_ctrls0.rdQLenPdf::2                    253                       # What read queue length does an incoming req see
system.mem_ctrls0.rdQLenPdf::3                     18                       # What read queue length does an incoming req see
system.mem_ctrls0.rdQLenPdf::4                      0                       # What read queue length does an incoming req see
system.mem_ctrls0.rdQLenPdf::5                      0                       # What read queue length does an incoming req see
system.mem_ctrls0.rdQLenPdf::6                      0                       # What read queue length does an incoming req see
system.mem_ctrls0.rdQLenPdf::7                      0                       # What read queue length does an incoming req see
system.mem_ctrls0.rdQLenPdf::8                      0                       # What read queue length does an incoming req see
system.mem_ctrls0.rdQLenPdf::9                      0                       # What read queue length does an incoming req see
system.mem_ctrls0.rdQLenPdf::10                     0                       # What read queue length does an incoming req see
system.mem_ctrls0.rdQLenPdf::11                     0                       # What read queue length does an incoming req see
system.mem_ctrls0.rdQLenPdf::12                     0                       # What read queue length does an incoming req see
system.mem_ctrls0.rdQLenPdf::13                     0                       # What read queue length does an incoming req see
system.mem_ctrls0.rdQLenPdf::14                     0                       # What read queue length does an incoming req see
system.mem_ctrls0.rdQLenPdf::15                     0                       # What read queue length does an incoming req see
system.mem_ctrls0.rdQLenPdf::16                     0                       # What read queue length does an incoming req see
system.mem_ctrls0.rdQLenPdf::17                     0                       # What read queue length does an incoming req see
system.mem_ctrls0.rdQLenPdf::18                     0                       # What read queue length does an incoming req see
system.mem_ctrls0.rdQLenPdf::19                     0                       # What read queue length does an incoming req see
system.mem_ctrls0.rdQLenPdf::20                     0                       # What read queue length does an incoming req see
system.mem_ctrls0.rdQLenPdf::21                     0                       # What read queue length does an incoming req see
system.mem_ctrls0.rdQLenPdf::22                     0                       # What read queue length does an incoming req see
system.mem_ctrls0.rdQLenPdf::23                     0                       # What read queue length does an incoming req see
system.mem_ctrls0.rdQLenPdf::24                     0                       # What read queue length does an incoming req see
system.mem_ctrls0.rdQLenPdf::25                     0                       # What read queue length does an incoming req see
system.mem_ctrls0.rdQLenPdf::26                     0                       # What read queue length does an incoming req see
system.mem_ctrls0.rdQLenPdf::27                     0                       # What read queue length does an incoming req see
system.mem_ctrls0.rdQLenPdf::28                     0                       # What read queue length does an incoming req see
system.mem_ctrls0.rdQLenPdf::29                     0                       # What read queue length does an incoming req see
system.mem_ctrls0.rdQLenPdf::30                     0                       # What read queue length does an incoming req see
system.mem_ctrls0.rdQLenPdf::31                     0                       # What read queue length does an incoming req see
system.mem_ctrls0.wrQLenPdf::0                      2                       # What write queue length does an incoming req see
system.mem_ctrls0.wrQLenPdf::1                      2                       # What write queue length does an incoming req see
system.mem_ctrls0.wrQLenPdf::2                      2                       # What write queue length does an incoming req see
system.mem_ctrls0.wrQLenPdf::3                      2                       # What write queue length does an incoming req see
system.mem_ctrls0.wrQLenPdf::4                      2                       # What write queue length does an incoming req see
system.mem_ctrls0.wrQLenPdf::5                      2                       # What write queue length does an incoming req see
system.mem_ctrls0.wrQLenPdf::6                      2                       # What write queue length does an incoming req see
system.mem_ctrls0.wrQLenPdf::7                      2                       # What write queue length does an incoming req see
system.mem_ctrls0.wrQLenPdf::8                      2                       # What write queue length does an incoming req see
system.mem_ctrls0.wrQLenPdf::9                      2                       # What write queue length does an incoming req see
system.mem_ctrls0.wrQLenPdf::10                     2                       # What write queue length does an incoming req see
system.mem_ctrls0.wrQLenPdf::11                     2                       # What write queue length does an incoming req see
system.mem_ctrls0.wrQLenPdf::12                     2                       # What write queue length does an incoming req see
system.mem_ctrls0.wrQLenPdf::13                     2                       # What write queue length does an incoming req see
system.mem_ctrls0.wrQLenPdf::14                     2                       # What write queue length does an incoming req see
system.mem_ctrls0.wrQLenPdf::15                  2091                       # What write queue length does an incoming req see
system.mem_ctrls0.wrQLenPdf::16                  2154                       # What write queue length does an incoming req see
system.mem_ctrls0.wrQLenPdf::17                  2381                       # What write queue length does an incoming req see
system.mem_ctrls0.wrQLenPdf::18                  2419                       # What write queue length does an incoming req see
system.mem_ctrls0.wrQLenPdf::19                  2421                       # What write queue length does an incoming req see
system.mem_ctrls0.wrQLenPdf::20                  2420                       # What write queue length does an incoming req see
system.mem_ctrls0.wrQLenPdf::21                  2425                       # What write queue length does an incoming req see
system.mem_ctrls0.wrQLenPdf::22                  2423                       # What write queue length does an incoming req see
system.mem_ctrls0.wrQLenPdf::23                  2429                       # What write queue length does an incoming req see
system.mem_ctrls0.wrQLenPdf::24                  2421                       # What write queue length does an incoming req see
system.mem_ctrls0.wrQLenPdf::25                  2416                       # What write queue length does an incoming req see
system.mem_ctrls0.wrQLenPdf::26                  2421                       # What write queue length does an incoming req see
system.mem_ctrls0.wrQLenPdf::27                  2423                       # What write queue length does an incoming req see
system.mem_ctrls0.wrQLenPdf::28                  2423                       # What write queue length does an incoming req see
system.mem_ctrls0.wrQLenPdf::29                  2425                       # What write queue length does an incoming req see
system.mem_ctrls0.wrQLenPdf::30                  2453                       # What write queue length does an incoming req see
system.mem_ctrls0.wrQLenPdf::31                  2413                       # What write queue length does an incoming req see
system.mem_ctrls0.wrQLenPdf::32                  2412                       # What write queue length does an incoming req see
system.mem_ctrls0.wrQLenPdf::33                     3                       # What write queue length does an incoming req see
system.mem_ctrls0.wrQLenPdf::34                     1                       # What write queue length does an incoming req see
system.mem_ctrls0.wrQLenPdf::35                     0                       # What write queue length does an incoming req see
system.mem_ctrls0.wrQLenPdf::36                     0                       # What write queue length does an incoming req see
system.mem_ctrls0.wrQLenPdf::37                     0                       # What write queue length does an incoming req see
system.mem_ctrls0.wrQLenPdf::38                     0                       # What write queue length does an incoming req see
system.mem_ctrls0.wrQLenPdf::39                     0                       # What write queue length does an incoming req see
system.mem_ctrls0.wrQLenPdf::40                     0                       # What write queue length does an incoming req see
system.mem_ctrls0.wrQLenPdf::41                     0                       # What write queue length does an incoming req see
system.mem_ctrls0.wrQLenPdf::42                     0                       # What write queue length does an incoming req see
system.mem_ctrls0.wrQLenPdf::43                     0                       # What write queue length does an incoming req see
system.mem_ctrls0.wrQLenPdf::44                     0                       # What write queue length does an incoming req see
system.mem_ctrls0.wrQLenPdf::45                     0                       # What write queue length does an incoming req see
system.mem_ctrls0.wrQLenPdf::46                     0                       # What write queue length does an incoming req see
system.mem_ctrls0.wrQLenPdf::47                     0                       # What write queue length does an incoming req see
system.mem_ctrls0.wrQLenPdf::48                     0                       # What write queue length does an incoming req see
system.mem_ctrls0.wrQLenPdf::49                     0                       # What write queue length does an incoming req see
system.mem_ctrls0.wrQLenPdf::50                     0                       # What write queue length does an incoming req see
system.mem_ctrls0.wrQLenPdf::51                     0                       # What write queue length does an incoming req see
system.mem_ctrls0.wrQLenPdf::52                     0                       # What write queue length does an incoming req see
system.mem_ctrls0.wrQLenPdf::53                     0                       # What write queue length does an incoming req see
system.mem_ctrls0.wrQLenPdf::54                     0                       # What write queue length does an incoming req see
system.mem_ctrls0.wrQLenPdf::55                     0                       # What write queue length does an incoming req see
system.mem_ctrls0.wrQLenPdf::56                     0                       # What write queue length does an incoming req see
system.mem_ctrls0.wrQLenPdf::57                     0                       # What write queue length does an incoming req see
system.mem_ctrls0.wrQLenPdf::58                     0                       # What write queue length does an incoming req see
system.mem_ctrls0.wrQLenPdf::59                     0                       # What write queue length does an incoming req see
system.mem_ctrls0.wrQLenPdf::60                     0                       # What write queue length does an incoming req see
system.mem_ctrls0.wrQLenPdf::61                     0                       # What write queue length does an incoming req see
system.mem_ctrls0.wrQLenPdf::62                     0                       # What write queue length does an incoming req see
system.mem_ctrls0.wrQLenPdf::63                     0                       # What write queue length does an incoming req see
system.mem_ctrls0.bytesPerActivate::samples       158975                       # Bytes accessed per row activation
system.mem_ctrls0.bytesPerActivate::mean   121.646095                       # Bytes accessed per row activation
system.mem_ctrls0.bytesPerActivate::gmean    92.061981                       # Bytes accessed per row activation
system.mem_ctrls0.bytesPerActivate::stdev   135.211982                       # Bytes accessed per row activation
system.mem_ctrls0.bytesPerActivate::0-127       109419     68.83%     68.83% # Bytes accessed per row activation
system.mem_ctrls0.bytesPerActivate::128-255        31725     19.96%     88.78% # Bytes accessed per row activation
system.mem_ctrls0.bytesPerActivate::256-383         8479      5.33%     94.12% # Bytes accessed per row activation
system.mem_ctrls0.bytesPerActivate::384-511         3999      2.52%     96.63% # Bytes accessed per row activation
system.mem_ctrls0.bytesPerActivate::512-639         2228      1.40%     98.03% # Bytes accessed per row activation
system.mem_ctrls0.bytesPerActivate::640-767         1271      0.80%     98.83% # Bytes accessed per row activation
system.mem_ctrls0.bytesPerActivate::768-895          734      0.46%     99.30% # Bytes accessed per row activation
system.mem_ctrls0.bytesPerActivate::896-1023          425      0.27%     99.56% # Bytes accessed per row activation
system.mem_ctrls0.bytesPerActivate::1024-1151          695      0.44%    100.00% # Bytes accessed per row activation
system.mem_ctrls0.bytesPerActivate::total       158975                       # Bytes accessed per row activation
system.mem_ctrls0.rdPerTurnAround::samples         2413                       # Reads before turning the bus around for writes
system.mem_ctrls0.rdPerTurnAround::mean    107.377538                       # Reads before turning the bus around for writes
system.mem_ctrls0.rdPerTurnAround::gmean    78.664373                       # Reads before turning the bus around for writes
system.mem_ctrls0.rdPerTurnAround::stdev   556.033578                       # Reads before turning the bus around for writes
system.mem_ctrls0.rdPerTurnAround::0-1023         2412     99.96%     99.96% # Reads before turning the bus around for writes
system.mem_ctrls0.rdPerTurnAround::26624-27647            1      0.04%    100.00% # Reads before turning the bus around for writes
system.mem_ctrls0.rdPerTurnAround::total         2413                       # Reads before turning the bus around for writes
system.mem_ctrls0.wrPerTurnAround::samples         2413                       # Writes before turning the bus around for reads
system.mem_ctrls0.wrPerTurnAround::mean     17.809780                       # Writes before turning the bus around for reads
system.mem_ctrls0.wrPerTurnAround::gmean    17.794643                       # Writes before turning the bus around for reads
system.mem_ctrls0.wrPerTurnAround::stdev     0.732363                       # Writes before turning the bus around for reads
system.mem_ctrls0.wrPerTurnAround::16             263     10.90%     10.90% # Writes before turning the bus around for reads
system.mem_ctrls0.wrPerTurnAround::17              50      2.07%     12.97% # Writes before turning the bus around for reads
system.mem_ctrls0.wrPerTurnAround::18            2005     83.09%     96.06% # Writes before turning the bus around for reads
system.mem_ctrls0.wrPerTurnAround::19              87      3.61%     99.67% # Writes before turning the bus around for reads
system.mem_ctrls0.wrPerTurnAround::20               3      0.12%     99.79% # Writes before turning the bus around for reads
system.mem_ctrls0.wrPerTurnAround::21               4      0.17%     99.96% # Writes before turning the bus around for reads
system.mem_ctrls0.wrPerTurnAround::30               1      0.04%    100.00% # Writes before turning the bus around for reads
system.mem_ctrls0.wrPerTurnAround::total         2413                       # Writes before turning the bus around for reads
system.mem_ctrls0.totQLat                 10306292541                       # Total ticks spent queuing
system.mem_ctrls0.totMemAccLat            15166142541                       # Total ticks spent from burst creation until serviced by the DRAM
system.mem_ctrls0.totBusLat                1295960000                       # Total ticks spent in databus transfers
system.mem_ctrls0.avgQLat                    39763.16                       # Average queueing delay per DRAM burst
system.mem_ctrls0.avgBusLat                   5000.00                       # Average bus latency per DRAM burst
system.mem_ctrls0.avgMemAccLat               58513.16                       # Average memory access latency per DRAM burst
system.mem_ctrls0.avgRdBW                       12.70                       # Average DRAM read bandwidth in MiByte/s
system.mem_ctrls0.avgWrBW                        2.11                       # Average achieved write bandwidth in MiByte/s
system.mem_ctrls0.avgRdBWSys                    12.75                       # Average system read bandwidth in MiByte/s
system.mem_ctrls0.avgWrBWSys                     2.11                       # Average system write bandwidth in MiByte/s
system.mem_ctrls0.peakBW                     12800.00                       # Theoretical peak bandwidth in MiByte/s
system.mem_ctrls0.busUtil                        0.12                       # Data bus utilization in percentage
system.mem_ctrls0.busUtilRead                    0.10                       # Data bus utilization in percentage for reads
system.mem_ctrls0.busUtilWrite                   0.02                       # Data bus utilization in percentage for writes
system.mem_ctrls0.avgRdQLen                      1.02                       # Average read queue length when enqueuing
system.mem_ctrls0.avgWrQLen                     19.00                       # Average write queue length when enqueuing
system.mem_ctrls0.readRowHits                  132810                       # Number of row buffer hits during reads
system.mem_ctrls0.writeRowHits                  10382                       # Number of row buffer hits during writes
system.mem_ctrls0.readRowHitRate                51.24                       # Row buffer hit rate for reads
system.mem_ctrls0.writeRowHitRate               24.14                       # Row buffer hit rate for writes
system.mem_ctrls0.avgGap                   4304855.01                       # Average gap between requests
system.mem_ctrls0.pageHitRate                   47.38                       # Row buffer hit rate, read and write combined
system.mem_ctrls0_0.actEnergy               565345200                       # Energy for activate commands per rank (pJ)
system.mem_ctrls0_0.preEnergy               300488100                       # Energy for precharge commands per rank (pJ)
system.mem_ctrls0_0.readEnergy              915397980                       # Energy for read commands per rank (pJ)
system.mem_ctrls0_0.writeEnergy             107704260                       # Energy for write commands per rank (pJ)
system.mem_ctrls0_0.refreshEnergy        19543708080.000004                       # Energy for refresh commands per rank (pJ)
system.mem_ctrls0_0.actBackEnergy          7107372750                       # Energy for active background per rank (pJ)
system.mem_ctrls0_0.preBackEnergy           884629440                       # Energy for precharge background per rank (pJ)
system.mem_ctrls0_0.actPowerDownEnergy    58586028420                       # Energy for active power-down per rank (pJ)
system.mem_ctrls0_0.prePowerDownEnergy    24676896960                       # Energy for precharge power-down per rank (pJ)
system.mem_ctrls0_0.selfRefreshEnergy    265702392105                       # Energy for self refresh per rank (pJ)
system.mem_ctrls0_0.totalEnergy          378397100115                       # Total energy per rank (pJ)
system.mem_ctrls0_0.averagePower           289.739729                       # Core power per rank (mW)
system.mem_ctrls0_0.totalIdleTime        1287670951911                       # Total Idle time Per DRAM Rank
system.mem_ctrls0_0.memoryStateTime::IDLE   1522278330                       # Time in different power states
system.mem_ctrls0_0.memoryStateTime::REF   8298384000                       # Time in different power states
system.mem_ctrls0_0.memoryStateTime::SREF 1095342805930                       # Time in different power states
system.mem_ctrls0_0.memoryStateTime::PRE_PDN  64262487895                       # Time in different power states
system.mem_ctrls0_0.memoryStateTime::ACT   8085792269                       # Time in different power states
system.mem_ctrls0_0.memoryStateTime::ACT_PDN 128477941256                       # Time in different power states
system.mem_ctrls0_1.actEnergy               569736300                       # Energy for activate commands per rank (pJ)
system.mem_ctrls0_1.preEnergy               302822025                       # Energy for precharge commands per rank (pJ)
system.mem_ctrls0_1.readEnergy              935232900                       # Energy for read commands per rank (pJ)
system.mem_ctrls0_1.writeEnergy             116625240                       # Energy for write commands per rank (pJ)
system.mem_ctrls0_1.refreshEnergy        20379618480.000004                       # Energy for refresh commands per rank (pJ)
system.mem_ctrls0_1.actBackEnergy          7346456400                       # Energy for active background per rank (pJ)
system.mem_ctrls0_1.preBackEnergy           912988320                       # Energy for precharge background per rank (pJ)
system.mem_ctrls0_1.actPowerDownEnergy    60569674590                       # Energy for active power-down per rank (pJ)
system.mem_ctrls0_1.prePowerDownEnergy    25899555360                       # Energy for precharge power-down per rank (pJ)
system.mem_ctrls0_1.selfRefreshEnergy    263937477600                       # Energy for self refresh per rank (pJ)
system.mem_ctrls0_1.totalEnergy          380976977625                       # Total energy per rank (pJ)
system.mem_ctrls0_1.averagePower           291.715149                       # Core power per rank (mW)
system.mem_ctrls0_1.totalIdleTime        1287066371880                       # Total Idle time Per DRAM Rank
system.mem_ctrls0_1.memoryStateTime::IDLE   1568327045                       # Time in different power states
system.mem_ctrls0_1.memoryStateTime::REF   8654054000                       # Time in different power states
system.mem_ctrls0_1.memoryStateTime::SREF 1087211340680                       # Time in different power states
system.mem_ctrls0_1.memoryStateTime::PRE_PDN  67446824842                       # Time in different power states
system.mem_ctrls0_1.memoryStateTime::ACT   8280968102                       # Time in different power states
system.mem_ctrls0_1.memoryStateTime::ACT_PDN 132828175011                       # Time in different power states
system.mem_ctrls1.pwrStateResidencyTicks::UNDEFINED 31317403850730                       # Cumulative time (in ticks) in various power states
system.mem_ctrls1.bytes_read::cpu.inst            192                       # Number of bytes read from this memory
system.mem_ctrls1.bytes_read::cpu.data            192                       # Number of bytes read from this memory
system.mem_ctrls1.bytes_read::switch_cpus.inst       135488                       # Number of bytes read from this memory
system.mem_ctrls1.bytes_read::switch_cpus.data      3708224                       # Number of bytes read from this memory
system.mem_ctrls1.bytes_read::switch_cpus_1.inst       227712                       # Number of bytes read from this memory
system.mem_ctrls1.bytes_read::switch_cpus_1.data     12638336                       # Number of bytes read from this memory
system.mem_ctrls1.bytes_read::total          16710144                       # Number of bytes read from this memory
system.mem_ctrls1.bytes_inst_read::cpu.inst          192                       # Number of instructions bytes read from this memory
system.mem_ctrls1.bytes_inst_read::switch_cpus.inst       135488                       # Number of instructions bytes read from this memory
system.mem_ctrls1.bytes_inst_read::switch_cpus_1.inst       227712                       # Number of instructions bytes read from this memory
system.mem_ctrls1.bytes_inst_read::total       363392                       # Number of instructions bytes read from this memory
system.mem_ctrls1.bytes_written::writebacks      2801920                       # Number of bytes written to this memory
system.mem_ctrls1.bytes_written::total        2801920                       # Number of bytes written to this memory
system.mem_ctrls1.num_reads::cpu.inst               3                       # Number of read requests responded to by this memory
system.mem_ctrls1.num_reads::cpu.data               3                       # Number of read requests responded to by this memory
system.mem_ctrls1.num_reads::switch_cpus.inst         2117                       # Number of read requests responded to by this memory
system.mem_ctrls1.num_reads::switch_cpus.data        57941                       # Number of read requests responded to by this memory
system.mem_ctrls1.num_reads::switch_cpus_1.inst         3558                       # Number of read requests responded to by this memory
system.mem_ctrls1.num_reads::switch_cpus_1.data       197474                       # Number of read requests responded to by this memory
system.mem_ctrls1.num_reads::total             261096                       # Number of read requests responded to by this memory
system.mem_ctrls1.num_writes::writebacks        43780                       # Number of write requests responded to by this memory
system.mem_ctrls1.num_writes::total             43780                       # Number of write requests responded to by this memory
system.mem_ctrls1.bw_read::cpu.inst               147                       # Total read bandwidth from this memory (bytes/s)
system.mem_ctrls1.bw_read::cpu.data               147                       # Total read bandwidth from this memory (bytes/s)
system.mem_ctrls1.bw_read::switch_cpus.inst       103744                       # Total read bandwidth from this memory (bytes/s)
system.mem_ctrls1.bw_read::switch_cpus.data      2839398                       # Total read bandwidth from this memory (bytes/s)
system.mem_ctrls1.bw_read::switch_cpus_1.inst       174360                       # Total read bandwidth from this memory (bytes/s)
system.mem_ctrls1.bw_read::switch_cpus_1.data      9677210                       # Total read bandwidth from this memory (bytes/s)
system.mem_ctrls1.bw_read::total             12795005                       # Total read bandwidth from this memory (bytes/s)
system.mem_ctrls1.bw_inst_read::cpu.inst          147                       # Instruction read bandwidth from this memory (bytes/s)
system.mem_ctrls1.bw_inst_read::switch_cpus.inst       103744                       # Instruction read bandwidth from this memory (bytes/s)
system.mem_ctrls1.bw_inst_read::switch_cpus_1.inst       174360                       # Instruction read bandwidth from this memory (bytes/s)
system.mem_ctrls1.bw_inst_read::total          278250                       # Instruction read bandwidth from this memory (bytes/s)
system.mem_ctrls1.bw_write::writebacks        2145438                       # Write bandwidth from this memory (bytes/s)
system.mem_ctrls1.bw_write::total             2145438                       # Write bandwidth from this memory (bytes/s)
system.mem_ctrls1.bw_total::writebacks        2145438                       # Total bandwidth to/from this memory (bytes/s)
system.mem_ctrls1.bw_total::cpu.inst              147                       # Total bandwidth to/from this memory (bytes/s)
system.mem_ctrls1.bw_total::cpu.data              147                       # Total bandwidth to/from this memory (bytes/s)
system.mem_ctrls1.bw_total::switch_cpus.inst       103744                       # Total bandwidth to/from this memory (bytes/s)
system.mem_ctrls1.bw_total::switch_cpus.data      2839398                       # Total bandwidth to/from this memory (bytes/s)
system.mem_ctrls1.bw_total::switch_cpus_1.inst       174360                       # Total bandwidth to/from this memory (bytes/s)
system.mem_ctrls1.bw_total::switch_cpus_1.data      9677210                       # Total bandwidth to/from this memory (bytes/s)
system.mem_ctrls1.bw_total::total            14940443                       # Total bandwidth to/from this memory (bytes/s)
system.mem_ctrls1.readReqs                     261096                       # Number of read requests accepted
system.mem_ctrls1.writeReqs                     43780                       # Number of write requests accepted
system.mem_ctrls1.readBursts                   261096                       # Number of DRAM read bursts, including those serviced by the write queue
system.mem_ctrls1.writeBursts                   43780                       # Number of DRAM write bursts, including those merged in the write queue
system.mem_ctrls1.bytesReadDRAM              16654272                       # Total number of bytes read from DRAM
system.mem_ctrls1.bytesReadWrQ                  55872                       # Total number of bytes read from write queue
system.mem_ctrls1.bytesWritten                2793728                       # Total number of bytes written to DRAM
system.mem_ctrls1.bytesReadSys               16710144                       # Total read bytes from the system interface side
system.mem_ctrls1.bytesWrittenSys             2801920                       # Total written bytes from the system interface side
system.mem_ctrls1.servicedByWrQ                   873                       # Number of DRAM read bursts serviced by the write queue
system.mem_ctrls1.mergedWrBursts                  110                       # Number of DRAM write bursts merged with an existing one
system.mem_ctrls1.neitherReadNorWriteReqs            0                       # Number of requests that are neither read nor write
system.mem_ctrls1.perBankRdBursts::0            16314                       # Per bank write bursts
system.mem_ctrls1.perBankRdBursts::1            16023                       # Per bank write bursts
system.mem_ctrls1.perBankRdBursts::2            17496                       # Per bank write bursts
system.mem_ctrls1.perBankRdBursts::3            17245                       # Per bank write bursts
system.mem_ctrls1.perBankRdBursts::4            15851                       # Per bank write bursts
system.mem_ctrls1.perBankRdBursts::5            14530                       # Per bank write bursts
system.mem_ctrls1.perBankRdBursts::6            15365                       # Per bank write bursts
system.mem_ctrls1.perBankRdBursts::7            15431                       # Per bank write bursts
system.mem_ctrls1.perBankRdBursts::8            17379                       # Per bank write bursts
system.mem_ctrls1.perBankRdBursts::9            15970                       # Per bank write bursts
system.mem_ctrls1.perBankRdBursts::10           15349                       # Per bank write bursts
system.mem_ctrls1.perBankRdBursts::11           14782                       # Per bank write bursts
system.mem_ctrls1.perBankRdBursts::12           17831                       # Per bank write bursts
system.mem_ctrls1.perBankRdBursts::13           16124                       # Per bank write bursts
system.mem_ctrls1.perBankRdBursts::14           16604                       # Per bank write bursts
system.mem_ctrls1.perBankRdBursts::15           17929                       # Per bank write bursts
system.mem_ctrls1.perBankWrBursts::0             2105                       # Per bank write bursts
system.mem_ctrls1.perBankWrBursts::1             2414                       # Per bank write bursts
system.mem_ctrls1.perBankWrBursts::2             2571                       # Per bank write bursts
system.mem_ctrls1.perBankWrBursts::3             2779                       # Per bank write bursts
system.mem_ctrls1.perBankWrBursts::4             3113                       # Per bank write bursts
system.mem_ctrls1.perBankWrBursts::5             2642                       # Per bank write bursts
system.mem_ctrls1.perBankWrBursts::6             2551                       # Per bank write bursts
system.mem_ctrls1.perBankWrBursts::7             2512                       # Per bank write bursts
system.mem_ctrls1.perBankWrBursts::8             3162                       # Per bank write bursts
system.mem_ctrls1.perBankWrBursts::9             2597                       # Per bank write bursts
system.mem_ctrls1.perBankWrBursts::10            2622                       # Per bank write bursts
system.mem_ctrls1.perBankWrBursts::11            2691                       # Per bank write bursts
system.mem_ctrls1.perBankWrBursts::12            3071                       # Per bank write bursts
system.mem_ctrls1.perBankWrBursts::13            2527                       # Per bank write bursts
system.mem_ctrls1.perBankWrBursts::14            3328                       # Per bank write bursts
system.mem_ctrls1.perBankWrBursts::15            2967                       # Per bank write bursts
system.mem_ctrls1.numRdRetry                        0                       # Number of times read queue was full causing retry
system.mem_ctrls1.numWrRetry                        0                       # Number of times write queue was full causing retry
system.mem_ctrls1.totGap                 1305563374089                       # Total gap between requests
system.mem_ctrls1.readPktSize::0                    0                       # Read request sizes (log2)
system.mem_ctrls1.readPktSize::1                    0                       # Read request sizes (log2)
system.mem_ctrls1.readPktSize::2                    0                       # Read request sizes (log2)
system.mem_ctrls1.readPktSize::3                    0                       # Read request sizes (log2)
system.mem_ctrls1.readPktSize::4                    0                       # Read request sizes (log2)
system.mem_ctrls1.readPktSize::5                    0                       # Read request sizes (log2)
system.mem_ctrls1.readPktSize::6               261096                       # Read request sizes (log2)
system.mem_ctrls1.writePktSize::0                   0                       # Write request sizes (log2)
system.mem_ctrls1.writePktSize::1                   0                       # Write request sizes (log2)
system.mem_ctrls1.writePktSize::2                   0                       # Write request sizes (log2)
system.mem_ctrls1.writePktSize::3                   0                       # Write request sizes (log2)
system.mem_ctrls1.writePktSize::4                   0                       # Write request sizes (log2)
system.mem_ctrls1.writePktSize::5                   0                       # Write request sizes (log2)
system.mem_ctrls1.writePktSize::6               43780                       # Write request sizes (log2)
system.mem_ctrls1.rdQLenPdf::0                 250502                       # What read queue length does an incoming req see
system.mem_ctrls1.rdQLenPdf::1                   9503                       # What read queue length does an incoming req see
system.mem_ctrls1.rdQLenPdf::2                    209                       # What read queue length does an incoming req see
system.mem_ctrls1.rdQLenPdf::3                      9                       # What read queue length does an incoming req see
system.mem_ctrls1.rdQLenPdf::4                      0                       # What read queue length does an incoming req see
system.mem_ctrls1.rdQLenPdf::5                      0                       # What read queue length does an incoming req see
system.mem_ctrls1.rdQLenPdf::6                      0                       # What read queue length does an incoming req see
system.mem_ctrls1.rdQLenPdf::7                      0                       # What read queue length does an incoming req see
system.mem_ctrls1.rdQLenPdf::8                      0                       # What read queue length does an incoming req see
system.mem_ctrls1.rdQLenPdf::9                      0                       # What read queue length does an incoming req see
system.mem_ctrls1.rdQLenPdf::10                     0                       # What read queue length does an incoming req see
system.mem_ctrls1.rdQLenPdf::11                     0                       # What read queue length does an incoming req see
system.mem_ctrls1.rdQLenPdf::12                     0                       # What read queue length does an incoming req see
system.mem_ctrls1.rdQLenPdf::13                     0                       # What read queue length does an incoming req see
system.mem_ctrls1.rdQLenPdf::14                     0                       # What read queue length does an incoming req see
system.mem_ctrls1.rdQLenPdf::15                     0                       # What read queue length does an incoming req see
system.mem_ctrls1.rdQLenPdf::16                     0                       # What read queue length does an incoming req see
system.mem_ctrls1.rdQLenPdf::17                     0                       # What read queue length does an incoming req see
system.mem_ctrls1.rdQLenPdf::18                     0                       # What read queue length does an incoming req see
system.mem_ctrls1.rdQLenPdf::19                     0                       # What read queue length does an incoming req see
system.mem_ctrls1.rdQLenPdf::20                     0                       # What read queue length does an incoming req see
system.mem_ctrls1.rdQLenPdf::21                     0                       # What read queue length does an incoming req see
system.mem_ctrls1.rdQLenPdf::22                     0                       # What read queue length does an incoming req see
system.mem_ctrls1.rdQLenPdf::23                     0                       # What read queue length does an incoming req see
system.mem_ctrls1.rdQLenPdf::24                     0                       # What read queue length does an incoming req see
system.mem_ctrls1.rdQLenPdf::25                     0                       # What read queue length does an incoming req see
system.mem_ctrls1.rdQLenPdf::26                     0                       # What read queue length does an incoming req see
system.mem_ctrls1.rdQLenPdf::27                     0                       # What read queue length does an incoming req see
system.mem_ctrls1.rdQLenPdf::28                     0                       # What read queue length does an incoming req see
system.mem_ctrls1.rdQLenPdf::29                     0                       # What read queue length does an incoming req see
system.mem_ctrls1.rdQLenPdf::30                     0                       # What read queue length does an incoming req see
system.mem_ctrls1.rdQLenPdf::31                     0                       # What read queue length does an incoming req see
system.mem_ctrls1.wrQLenPdf::0                      2                       # What write queue length does an incoming req see
system.mem_ctrls1.wrQLenPdf::1                      2                       # What write queue length does an incoming req see
system.mem_ctrls1.wrQLenPdf::2                      2                       # What write queue length does an incoming req see
system.mem_ctrls1.wrQLenPdf::3                      2                       # What write queue length does an incoming req see
system.mem_ctrls1.wrQLenPdf::4                      2                       # What write queue length does an incoming req see
system.mem_ctrls1.wrQLenPdf::5                      2                       # What write queue length does an incoming req see
system.mem_ctrls1.wrQLenPdf::6                      2                       # What write queue length does an incoming req see
system.mem_ctrls1.wrQLenPdf::7                      2                       # What write queue length does an incoming req see
system.mem_ctrls1.wrQLenPdf::8                      2                       # What write queue length does an incoming req see
system.mem_ctrls1.wrQLenPdf::9                      2                       # What write queue length does an incoming req see
system.mem_ctrls1.wrQLenPdf::10                     2                       # What write queue length does an incoming req see
system.mem_ctrls1.wrQLenPdf::11                     2                       # What write queue length does an incoming req see
system.mem_ctrls1.wrQLenPdf::12                     2                       # What write queue length does an incoming req see
system.mem_ctrls1.wrQLenPdf::13                     2                       # What write queue length does an incoming req see
system.mem_ctrls1.wrQLenPdf::14                     2                       # What write queue length does an incoming req see
system.mem_ctrls1.wrQLenPdf::15                  2150                       # What write queue length does an incoming req see
system.mem_ctrls1.wrQLenPdf::16                  2186                       # What write queue length does an incoming req see
system.mem_ctrls1.wrQLenPdf::17                  2426                       # What write queue length does an incoming req see
system.mem_ctrls1.wrQLenPdf::18                  2451                       # What write queue length does an incoming req see
system.mem_ctrls1.wrQLenPdf::19                  2454                       # What write queue length does an incoming req see
system.mem_ctrls1.wrQLenPdf::20                  2459                       # What write queue length does an incoming req see
system.mem_ctrls1.wrQLenPdf::21                  2467                       # What write queue length does an incoming req see
system.mem_ctrls1.wrQLenPdf::22                  2462                       # What write queue length does an incoming req see
system.mem_ctrls1.wrQLenPdf::23                  2457                       # What write queue length does an incoming req see
system.mem_ctrls1.wrQLenPdf::24                  2455                       # What write queue length does an incoming req see
system.mem_ctrls1.wrQLenPdf::25                  2453                       # What write queue length does an incoming req see
system.mem_ctrls1.wrQLenPdf::26                  2454                       # What write queue length does an incoming req see
system.mem_ctrls1.wrQLenPdf::27                  2457                       # What write queue length does an incoming req see
system.mem_ctrls1.wrQLenPdf::28                  2456                       # What write queue length does an incoming req see
system.mem_ctrls1.wrQLenPdf::29                  2461                       # What write queue length does an incoming req see
system.mem_ctrls1.wrQLenPdf::30                  2486                       # What write queue length does an incoming req see
system.mem_ctrls1.wrQLenPdf::31                  2449                       # What write queue length does an incoming req see
system.mem_ctrls1.wrQLenPdf::32                  2452                       # What write queue length does an incoming req see
system.mem_ctrls1.wrQLenPdf::33                     4                       # What write queue length does an incoming req see
system.mem_ctrls1.wrQLenPdf::34                     1                       # What write queue length does an incoming req see
system.mem_ctrls1.wrQLenPdf::35                     0                       # What write queue length does an incoming req see
system.mem_ctrls1.wrQLenPdf::36                     0                       # What write queue length does an incoming req see
system.mem_ctrls1.wrQLenPdf::37                     0                       # What write queue length does an incoming req see
system.mem_ctrls1.wrQLenPdf::38                     0                       # What write queue length does an incoming req see
system.mem_ctrls1.wrQLenPdf::39                     0                       # What write queue length does an incoming req see
system.mem_ctrls1.wrQLenPdf::40                     0                       # What write queue length does an incoming req see
system.mem_ctrls1.wrQLenPdf::41                     0                       # What write queue length does an incoming req see
system.mem_ctrls1.wrQLenPdf::42                     0                       # What write queue length does an incoming req see
system.mem_ctrls1.wrQLenPdf::43                     0                       # What write queue length does an incoming req see
system.mem_ctrls1.wrQLenPdf::44                     0                       # What write queue length does an incoming req see
system.mem_ctrls1.wrQLenPdf::45                     0                       # What write queue length does an incoming req see
system.mem_ctrls1.wrQLenPdf::46                     0                       # What write queue length does an incoming req see
system.mem_ctrls1.wrQLenPdf::47                     0                       # What write queue length does an incoming req see
system.mem_ctrls1.wrQLenPdf::48                     0                       # What write queue length does an incoming req see
system.mem_ctrls1.wrQLenPdf::49                     0                       # What write queue length does an incoming req see
system.mem_ctrls1.wrQLenPdf::50                     0                       # What write queue length does an incoming req see
system.mem_ctrls1.wrQLenPdf::51                     0                       # What write queue length does an incoming req see
system.mem_ctrls1.wrQLenPdf::52                     0                       # What write queue length does an incoming req see
system.mem_ctrls1.wrQLenPdf::53                     0                       # What write queue length does an incoming req see
system.mem_ctrls1.wrQLenPdf::54                     0                       # What write queue length does an incoming req see
system.mem_ctrls1.wrQLenPdf::55                     0                       # What write queue length does an incoming req see
system.mem_ctrls1.wrQLenPdf::56                     0                       # What write queue length does an incoming req see
system.mem_ctrls1.wrQLenPdf::57                     0                       # What write queue length does an incoming req see
system.mem_ctrls1.wrQLenPdf::58                     0                       # What write queue length does an incoming req see
system.mem_ctrls1.wrQLenPdf::59                     0                       # What write queue length does an incoming req see
system.mem_ctrls1.wrQLenPdf::60                     0                       # What write queue length does an incoming req see
system.mem_ctrls1.wrQLenPdf::61                     0                       # What write queue length does an incoming req see
system.mem_ctrls1.wrQLenPdf::62                     0                       # What write queue length does an incoming req see
system.mem_ctrls1.wrQLenPdf::63                     0                       # What write queue length does an incoming req see
system.mem_ctrls1.bytesPerActivate::samples       161512                       # Bytes accessed per row activation
system.mem_ctrls1.bytesPerActivate::mean   120.412106                       # Bytes accessed per row activation
system.mem_ctrls1.bytesPerActivate::gmean    91.427126                       # Bytes accessed per row activation
system.mem_ctrls1.bytesPerActivate::stdev   133.969765                       # Bytes accessed per row activation
system.mem_ctrls1.bytesPerActivate::0-127       111917     69.29%     69.29% # Bytes accessed per row activation
system.mem_ctrls1.bytesPerActivate::128-255        31996     19.81%     89.10% # Bytes accessed per row activation
system.mem_ctrls1.bytesPerActivate::256-383         8370      5.18%     94.29% # Bytes accessed per row activation
system.mem_ctrls1.bytesPerActivate::384-511         3933      2.44%     96.72% # Bytes accessed per row activation
system.mem_ctrls1.bytesPerActivate::512-639         2142      1.33%     98.05% # Bytes accessed per row activation
system.mem_ctrls1.bytesPerActivate::640-767         1301      0.81%     98.85% # Bytes accessed per row activation
system.mem_ctrls1.bytesPerActivate::768-895          727      0.45%     99.30% # Bytes accessed per row activation
system.mem_ctrls1.bytesPerActivate::896-1023          437      0.27%     99.57% # Bytes accessed per row activation
system.mem_ctrls1.bytesPerActivate::1024-1151          689      0.43%    100.00% # Bytes accessed per row activation
system.mem_ctrls1.bytesPerActivate::total       161512                       # Bytes accessed per row activation
system.mem_ctrls1.rdPerTurnAround::samples         2450                       # Reads before turning the bus around for writes
system.mem_ctrls1.rdPerTurnAround::mean    106.200816                       # Reads before turning the bus around for writes
system.mem_ctrls1.rdPerTurnAround::gmean    77.909698                       # Reads before turning the bus around for writes
system.mem_ctrls1.rdPerTurnAround::stdev   549.293656                       # Reads before turning the bus around for writes
system.mem_ctrls1.rdPerTurnAround::0-1023         2449     99.96%     99.96% # Reads before turning the bus around for writes
system.mem_ctrls1.rdPerTurnAround::26624-27647            1      0.04%    100.00% # Reads before turning the bus around for writes
system.mem_ctrls1.rdPerTurnAround::total         2450                       # Reads before turning the bus around for writes
system.mem_ctrls1.wrPerTurnAround::samples         2450                       # Writes before turning the bus around for reads
system.mem_ctrls1.wrPerTurnAround::mean     17.817143                       # Writes before turning the bus around for reads
system.mem_ctrls1.wrPerTurnAround::gmean    17.802930                       # Writes before turning the bus around for reads
system.mem_ctrls1.wrPerTurnAround::stdev     0.700603                       # Writes before turning the bus around for reads
system.mem_ctrls1.wrPerTurnAround::16             263     10.73%     10.73% # Writes before turning the bus around for reads
system.mem_ctrls1.wrPerTurnAround::17              36      1.47%     12.20% # Writes before turning the bus around for reads
system.mem_ctrls1.wrPerTurnAround::18            2055     83.88%     96.08% # Writes before turning the bus around for reads
system.mem_ctrls1.wrPerTurnAround::19              86      3.51%     99.59% # Writes before turning the bus around for reads
system.mem_ctrls1.wrPerTurnAround::20               7      0.29%     99.88% # Writes before turning the bus around for reads
system.mem_ctrls1.wrPerTurnAround::21               2      0.08%     99.96% # Writes before turning the bus around for reads
system.mem_ctrls1.wrPerTurnAround::26               1      0.04%    100.00% # Writes before turning the bus around for reads
system.mem_ctrls1.wrPerTurnAround::total         2450                       # Writes before turning the bus around for reads
system.mem_ctrls1.totQLat                 10705217881                       # Total ticks spent queuing
system.mem_ctrls1.totMemAccLat            15584399131                       # Total ticks spent from burst creation until serviced by the DRAM
system.mem_ctrls1.totBusLat                1301115000                       # Total ticks spent in databus transfers
system.mem_ctrls1.avgQLat                    41138.63                       # Average queueing delay per DRAM burst
system.mem_ctrls1.avgBusLat                   5000.00                       # Average bus latency per DRAM burst
system.mem_ctrls1.avgMemAccLat               59888.63                       # Average memory access latency per DRAM burst
system.mem_ctrls1.avgRdBW                       12.75                       # Average DRAM read bandwidth in MiByte/s
system.mem_ctrls1.avgWrBW                        2.14                       # Average achieved write bandwidth in MiByte/s
system.mem_ctrls1.avgRdBWSys                    12.80                       # Average system read bandwidth in MiByte/s
system.mem_ctrls1.avgWrBWSys                     2.15                       # Average system write bandwidth in MiByte/s
system.mem_ctrls1.peakBW                     12800.00                       # Theoretical peak bandwidth in MiByte/s
system.mem_ctrls1.busUtil                        0.12                       # Data bus utilization in percentage
system.mem_ctrls1.busUtilRead                    0.10                       # Data bus utilization in percentage for reads
system.mem_ctrls1.busUtilWrite                   0.02                       # Data bus utilization in percentage for writes
system.mem_ctrls1.avgRdQLen                      1.01                       # Average read queue length when enqueuing
system.mem_ctrls1.avgWrQLen                     18.94                       # Average write queue length when enqueuing
system.mem_ctrls1.readRowHits                  132148                       # Number of row buffer hits during reads
system.mem_ctrls1.writeRowHits                  10215                       # Number of row buffer hits during writes
system.mem_ctrls1.readRowHitRate                50.78                       # Row buffer hit rate for reads
system.mem_ctrls1.writeRowHitRate               23.39                       # Row buffer hit rate for writes
system.mem_ctrls1.avgGap                   4282276.64                       # Average gap between requests
system.mem_ctrls1.pageHitRate                   46.85                       # Row buffer hit rate, read and write combined
system.mem_ctrls1_0.actEnergy               572542320                       # Energy for activate commands per rank (pJ)
system.mem_ctrls1_0.preEnergy               304313460                       # Energy for precharge commands per rank (pJ)
system.mem_ctrls1_0.readEnergy              915740700                       # Energy for read commands per rank (pJ)
system.mem_ctrls1_0.writeEnergy             107986140                       # Energy for write commands per rank (pJ)
system.mem_ctrls1_0.refreshEnergy        20558478720.000004                       # Energy for refresh commands per rank (pJ)
system.mem_ctrls1_0.actBackEnergy          7316576430                       # Energy for active background per rank (pJ)
system.mem_ctrls1_0.preBackEnergy           949261920                       # Energy for precharge background per rank (pJ)
system.mem_ctrls1_0.actPowerDownEnergy    60459659460                       # Energy for active power-down per rank (pJ)
system.mem_ctrls1_0.prePowerDownEnergy    26263922400                       # Energy for precharge power-down per rank (pJ)
system.mem_ctrls1_0.selfRefreshEnergy    263877229140                       # Energy for self refresh per rank (pJ)
system.mem_ctrls1_0.totalEnergy          381332305500                       # Total energy per rank (pJ)
system.mem_ctrls1_0.averagePower           291.987224                       # Core power per rank (mW)
system.mem_ctrls1_0.totalIdleTime        1287046915005                       # Total Idle time Per DRAM Rank
system.mem_ctrls1_0.memoryStateTime::IDLE   1657461132                       # Time in different power states
system.mem_ctrls1_0.memoryStateTime::REF   8730980000                       # Time in different power states
system.mem_ctrls1_0.memoryStateTime::SREF 1086475344680                       # Time in different power states
system.mem_ctrls1_0.memoryStateTime::PRE_PDN  68395957691                       # Time in different power states
system.mem_ctrls1_0.memoryStateTime::ACT   8142770985                       # Time in different power states
system.mem_ctrls1_0.memoryStateTime::ACT_PDN 132587175192                       # Time in different power states
system.mem_ctrls1_1.actEnergy               580653360                       # Energy for activate commands per rank (pJ)
system.mem_ctrls1_1.preEnergy               308624580                       # Energy for precharge commands per rank (pJ)
system.mem_ctrls1_1.readEnergy              942251520                       # Energy for read commands per rank (pJ)
system.mem_ctrls1_1.writeEnergy             119877300                       # Energy for write commands per rank (pJ)
system.mem_ctrls1_1.refreshEnergy        20717670480.000004                       # Energy for refresh commands per rank (pJ)
system.mem_ctrls1_1.actBackEnergy          7440509250                       # Energy for active background per rank (pJ)
system.mem_ctrls1_1.preBackEnergy           932767680                       # Energy for precharge background per rank (pJ)
system.mem_ctrls1_1.actPowerDownEnergy    61451611080                       # Energy for active power-down per rank (pJ)
system.mem_ctrls1_1.prePowerDownEnergy    26333954880                       # Energy for precharge power-down per rank (pJ)
system.mem_ctrls1_1.selfRefreshEnergy    263213331165                       # Energy for self refresh per rank (pJ)
system.mem_ctrls1_1.totalEnergy          382049110755                       # Total energy per rank (pJ)
system.mem_ctrls1_1.averagePower           292.536083                       # Core power per rank (mW)
system.mem_ctrls1_1.totalIdleTime        1286808308115                       # Total Idle time Per DRAM Rank
system.mem_ctrls1_1.memoryStateTime::IDLE   1609321800                       # Time in different power states
system.mem_ctrls1_1.memoryStateTime::REF   8798062000                       # Time in different power states
system.mem_ctrls1_1.memoryStateTime::SREF 1083885936180                       # Time in different power states
system.mem_ctrls1_1.memoryStateTime::PRE_PDN  68578323209                       # Time in different power states
system.mem_ctrls1_1.memoryStateTime::ACT   8355619520                       # Time in different power states
system.mem_ctrls1_1.memoryStateTime::ACT_PDN 134762426971                       # Time in different power states
system.pwrStateResidencyTicks::UNDEFINED 31317403850730                       # Cumulative time (in ticks) in various power states
system.cpu.branchPred.lookups                       6                       # Number of BP lookups
system.cpu.branchPred.condPredicted                 3                       # Number of conditional branches predicted
system.cpu.branchPred.condIncorrect                 3                       # Number of conditional branches incorrect
system.cpu.branchPred.BTBLookups                    3                       # Number of BTB lookups
system.cpu.branchPred.BTBHits                       0                       # Number of BTB hits
system.cpu.branchPred.BTBCorrect                    0                       # Number of correct BTB predictions (this stat may not work properly.
system.cpu.branchPred.BTBHitPct              0.000000                       # BTB Hit Percentage
system.cpu.branchPred.usedRAS                       0                       # Number of times the RAS was used to get a target.
system.cpu.branchPred.RASInCorrect                  0                       # Number of incorrect RAS predictions.
system.cpu.branchPred.indirectLookups               1                       # Number of indirect predictor lookups.
system.cpu.branchPred.indirectHits                  0                       # Number of indirect target hits.
system.cpu.branchPred.indirectMisses                1                       # Number of indirect misses.
system.cpu.branchPredindirectMispredicted            1                       # Number of mispredicted indirect branches.
system.cpu_voltage_domain.voltage                   1                       # Voltage in Volts
system.cpu_clk_domain.clock                       333                       # Clock period in ticks
system.cpu.dtb.fetch_hits                           0                       # ITB hits
system.cpu.dtb.fetch_misses                         0                       # ITB misses
system.cpu.dtb.fetch_acv                            0                       # ITB acv
system.cpu.dtb.fetch_accesses                       0                       # ITB accesses
system.cpu.dtb.read_hits                            5                       # DTB read hits
system.cpu.dtb.read_misses                          0                       # DTB read misses
system.cpu.dtb.read_acv                             0                       # DTB read access violations
system.cpu.dtb.read_accesses                        5                       # DTB read accesses
system.cpu.dtb.write_hits                           0                       # DTB write hits
system.cpu.dtb.write_misses                         0                       # DTB write misses
system.cpu.dtb.write_acv                            0                       # DTB write access violations
system.cpu.dtb.write_accesses                       0                       # DTB write accesses
system.cpu.dtb.data_hits                            5                       # DTB hits
system.cpu.dtb.data_misses                          0                       # DTB misses
system.cpu.dtb.data_acv                             0                       # DTB access violations
system.cpu.dtb.data_accesses                        5                       # DTB accesses
system.cpu.itb.fetch_hits                           7                       # ITB hits
system.cpu.itb.fetch_misses                         0                       # ITB misses
system.cpu.itb.fetch_acv                            0                       # ITB acv
system.cpu.itb.fetch_accesses                       7                       # ITB accesses
system.cpu.itb.read_hits                            0                       # DTB read hits
system.cpu.itb.read_misses                          0                       # DTB read misses
system.cpu.itb.read_acv                             0                       # DTB read access violations
system.cpu.itb.read_accesses                        0                       # DTB read accesses
system.cpu.itb.write_hits                           0                       # DTB write hits
system.cpu.itb.write_misses                         0                       # DTB write misses
system.cpu.itb.write_acv                            0                       # DTB write access violations
system.cpu.itb.write_accesses                       0                       # DTB write accesses
system.cpu.itb.data_hits                            0                       # DTB hits
system.cpu.itb.data_misses                          0                       # DTB misses
system.cpu.itb.data_acv                             0                       # DTB access violations
system.cpu.itb.data_accesses                        0                       # DTB accesses
system.cpu.workload.num_syscalls                   43                       # Number of system calls
system.cpu.pwrStateResidencyTicks::ON    1305989689680                       # Cumulative time (in ticks) in various power states
system.cpu.numCycles                             1010                       # number of cpu cycles simulated
system.cpu.numWorkItemsStarted                      0                       # number of work items this cpu started
system.cpu.numWorkItemsCompleted                    0                       # number of work items this cpu completed
system.cpu.fetch.icacheStallCycles                 50                       # Number of cycles fetch is stalled on an Icache miss
system.cpu.fetch.Insts                             34                       # Number of instructions fetch has processed
system.cpu.fetch.Branches                           6                       # Number of branches that fetch encountered
system.cpu.fetch.Cycles                             5                       # Number of cycles fetch has run and was not squashing or blocked
system.cpu.fetch.SquashCycles                       9                       # Number of cycles fetch has spent squashing
system.cpu.fetch.PendingDrainCycles                 6                       # Number of cycles fetch has spent waiting on pipes to drain
system.cpu.fetch.CacheLines                         7                       # Number of cache lines fetched
system.cpu.fetch.IcacheSquashes                     4                       # Number of outstanding Icache misses that were squashed
system.cpu.fetch.rateDist::samples                 65                       # Number of instructions fetched each cycle (Total)
system.cpu.fetch.rateDist::mean              0.523077                       # Number of instructions fetched each cycle (Total)
system.cpu.fetch.rateDist::stdev             1.880057                       # Number of instructions fetched each cycle (Total)
system.cpu.fetch.rateDist::underflows               0      0.00%      0.00% # Number of instructions fetched each cycle (Total)
system.cpu.fetch.rateDist::0                       60     92.31%     92.31% # Number of instructions fetched each cycle (Total)
system.cpu.fetch.rateDist::1                        0      0.00%     92.31% # Number of instructions fetched each cycle (Total)
system.cpu.fetch.rateDist::2                        0      0.00%     92.31% # Number of instructions fetched each cycle (Total)
system.cpu.fetch.rateDist::3                        0      0.00%     92.31% # Number of instructions fetched each cycle (Total)
system.cpu.fetch.rateDist::4                        1      1.54%     93.85% # Number of instructions fetched each cycle (Total)
system.cpu.fetch.rateDist::5                        0      0.00%     93.85% # Number of instructions fetched each cycle (Total)
system.cpu.fetch.rateDist::6                        1      1.54%     95.38% # Number of instructions fetched each cycle (Total)
system.cpu.fetch.rateDist::7                        0      0.00%     95.38% # Number of instructions fetched each cycle (Total)
system.cpu.fetch.rateDist::8                        3      4.62%    100.00% # Number of instructions fetched each cycle (Total)
system.cpu.fetch.rateDist::overflows                0      0.00%    100.00% # Number of instructions fetched each cycle (Total)
[...]
system.switch_cpus_1.iq.int_inst_queue_wakeup_accesses   1108143732                       # Number of integer instruction queue wakeup accesses
system.switch_cpus_1.iq.fp_inst_queue_reads      1334850                       # Number of floating instruction queue reads
system.switch_cpus_1.iq.fp_inst_queue_writes      1019346                       # Number of floating instruction queue writes
system.switch_cpus_1.iq.fp_inst_queue_wakeup_accesses       583041                       # Number of floating instruction queue wakeup accesses
system.switch_cpus_1.iq.int_alu_accesses   1163792105                       # Number of integer alu accesses
system.switch_cpus_1.iq.fp_alu_accesses        688336                       # Number of floating point alu accesses
system.switch_cpus_1.iew.lsq.thread0.forwLoads     30940570                       # Number of loads that had data forwarded from stores
system.switch_cpus_1.iew.lsq.thread0.invAddrLoads            0                       # Number of loads ignored due to an invalid address
system.switch_cpus_1.iew.lsq.thread0.squashedLoads     64900247                       # Number of loads squashed
system.switch_cpus_1.iew.lsq.thread0.ignoredResponses       127258                       # Number of memory responses ignored because the instruction is squashed
system.switch_cpus_1.iew.lsq.thread0.memOrderViolation       265329                       # Number of memory ordering violations
system.switch_cpus_1.iew.lsq.thread0.squashedStores     27824320                       # Number of stores squashed
system.switch_cpus_1.iew.lsq.thread0.invAddrSwpfs            0                       # Number of software prefetches ignored due to an invalid address
system.switch_cpus_1.iew.lsq.thread0.blockedLoads            0                       # Number of blocked loads due to partial load-store forwarding
system.switch_cpus_1.iew.lsq.thread0.rescheduledLoads          167                       # Number of loads that were rescheduled
system.switch_cpus_1.iew.lsq.thread0.cacheBlocked       304551                       # Number of times an access to memory failed due to the cache being blocked
system.switch_cpus_1.iew.iewIdleCycles              0                       # Number of cycles IEW is idle
system.switch_cpus_1.iew.iewSquashCycles      7185840                       # Number of cycles IEW is squashing
system.switch_cpus_1.iew.iewBlockCycles      99172112                       # Number of cycles IEW is blocking
system.switch_cpus_1.iew.iewUnblockCycles     76600946                       # Number of cycles IEW is unblocking
system.switch_cpus_1.iew.iewDispatchedInsts   1242544911                       # Number of instructions dispatched to IQ
system.switch_cpus_1.iew.iewDispSquashedInsts      3446036                       # Number of squashed instructions skipped by dispatch
system.switch_cpus_1.iew.iewDispLoadInsts    372378140                       # Number of dispatched load instructions
system.switch_cpus_1.iew.iewDispStoreInsts    163608737                       # Number of dispatched store instructions
system.switch_cpus_1.iew.iewDispNonSpecInsts       233824                       # Number of dispatched non-speculative instructions
system.switch_cpus_1.iew.iewIQFullEvents       789707                       # Number of times the IQ has become full, causing a stall
system.switch_cpus_1.iew.iewLSQFullEvents     75919955                       # Number of times the LSQ has become full, causing a stall
system.switch_cpus_1.iew.memOrderViolationEvents       265329                       # Number of memory order violations
system.switch_cpus_1.iew.predictedTakenIncorrect      3634931                       # Number of branches that were predicted taken incorrectly
system.switch_cpus_1.iew.predictedNotTakenIncorrect      2504738                       # Number of branches that were predicted not taken incorrectly
system.switch_cpus_1.iew.branchMispredicts      6139669                       # Number of branch mispredicts detected at execute
system.switch_cpus_1.iew.iewExecutedInsts   1119158828                       # Number of executed instructions
system.switch_cpus_1.iew.iewExecLoadInsts    344644849                       # Number of load instructions executed
system.switch_cpus_1.iew.iewExecSquashedInsts      9608600                       # Number of squashed instructions skipped in execute
system.switch_cpus_1.iew.exec_swp                   0                       # number of swp insts executed
system.switch_cpus_1.iew.exec_nop            28381641                       # number of nop insts executed
system.switch_cpus_1.iew.exec_refs          496664577                       # number of memory reference insts executed
system.switch_cpus_1.iew.exec_branches      187180884                       # Number of branches executed
system.switch_cpus_1.iew.exec_stores        152019728                       # Number of stores executed
system.switch_cpus_1.iew.exec_rate           1.293899                       # Inst execution rate
system.switch_cpus_1.iew.wb_sent           1114774942                       # cumulative count of insts sent to commit
system.switch_cpus_1.iew.wb_count          1108726773                       # cumulative count of insts written-back
system.switch_cpus_1.iew.wb_producers       630047574                       # num instructions producing a value
system.switch_cpus_1.iew.wb_consumers       790975576                       # num instructions consuming a value
system.switch_cpus_1.iew.wb_rate             1.281839                       # insts written-back per cycle
system.switch_cpus_1.iew.wb_fanout           0.796545                       # average fanout of values written-back
system.switch_cpus_1.commit.commitSquashedInsts    196270654                       # The number of squashed insts skipped by commit
system.switch_cpus_1.commit.commitNonSpecStalls       341332                       # The number of times commit has been forced to stall to communicate backwards
system.switch_cpus_1.commit.branchMispredicts      5511917                       # The number of times a branch was mispredicted
system.switch_cpus_1.commit.committed_per_cycle::samples    765237502                       # Number of insts commited each cycle
system.switch_cpus_1.commit.committed_per_cycle::mean     1.336048                       # Number of insts commited each cycle
system.switch_cpus_1.commit.committed_per_cycle::stdev     2.372284                       # Number of insts commited each cycle
system.switch_cpus_1.commit.committed_per_cycle::underflows            0      0.00%      0.00% # Number of insts commited each cycle
system.switch_cpus_1.commit.committed_per_cycle::0    462303174     60.41%     60.41% # Number of insts commited each cycle
system.switch_cpus_1.commit.committed_per_cycle::1    126026091     16.47%     76.88% # Number of insts commited each cycle
system.switch_cpus_1.commit.committed_per_cycle::2     43272771      5.65%     82.54% # Number of insts commited each cycle
system.switch_cpus_1.commit.committed_per_cycle::3     17815578      2.33%     84.86% # Number of insts commited each cycle
system.switch_cpus_1.commit.committed_per_cycle::4     17829262      2.33%     87.19% # Number of insts commited each cycle
system.switch_cpus_1.commit.committed_per_cycle::5     17312424      2.26%     89.46% # Number of insts commited each cycle
system.switch_cpus_1.commit.committed_per_cycle::6     17759155      2.32%     91.78% # Number of insts commited each cycle
system.switch_cpus_1.commit.committed_per_cycle::7     11411009      1.49%     93.27% # Number of insts commited each cycle
system.switch_cpus_1.commit.committed_per_cycle::8     51508038      6.73%    100.00% # Number of insts commited each cycle
system.switch_cpus_1.commit.committed_per_cycle::overflows            0      0.00%    100.00% # Number of insts commited each cycle
system.switch_cpus_1.commit.committed_per_cycle::min_value            0                       # Number of insts commited each cycle
system.switch_cpus_1.commit.committed_per_cycle::max_value            8                       # Number of insts commited each cycle
system.switch_cpus_1.commit.committed_per_cycle::total    765237502                       # Number of insts commited each cycle
system.switch_cpus_1.commit.committedInsts   1022393832                       # Number of instructions committed
system.switch_cpus_1.commit.committedOps   1022393832                       # Number of ops (including micro ops) committed
system.switch_cpus_1.commit.swp_count               0                       # Number of s/w prefetches committed
system.switch_cpus_1.commit.refs            443262300                       # Number of memory references committed
system.switch_cpus_1.commit.loads           307477884                       # Number of loads committed
system.switch_cpus_1.commit.membars            170646                       # Number of memory barriers committed
system.switch_cpus_1.commit.branches        167558420                       # Number of branches committed
system.switch_cpus_1.commit.fp_insts           373014                       # Number of committed floating point instructions.
system.switch_cpus_1.commit.int_insts       981764290                       # Number of committed integer instructions.
system.switch_cpus_1.commit.function_calls      9278489                       # Number of function calls committed.
system.switch_cpus_1.commit.op_class_0::No_OpClass     22395376      2.19%      2.19% # Class of committed instruction
system.switch_cpus_1.commit.op_class_0::IntAlu    556452927     54.43%     56.62% # Class of committed instruction
system.switch_cpus_1.commit.op_class_0::IntMult         9500      0.00%     56.62% # Class of committed instruction
system.switch_cpus_1.commit.op_class_0::IntDiv            0      0.00%     56.62% # Class of committed instruction
system.switch_cpus_1.commit.op_class_0::FloatAdd        86614      0.01%     56.63% # Class of committed instruction
system.switch_cpus_1.commit.op_class_0::FloatCmp         7080      0.00%     56.63% # Class of committed instruction
system.switch_cpus_1.commit.op_class_0::FloatCvt         7849      0.00%     56.63% # Class of committed instruction
system.switch_cpus_1.commit.op_class_0::FloatMult          578      0.00%     56.63% # Class of committed instruction
system.switch_cpus_1.commit.op_class_0::FloatMultAcc            0      0.00%     56.63% # Class of committed instruction
system.switch_cpus_1.commit.op_class_0::FloatDiv          962      0.00%     56.63% # Class of committed instruction
system.switch_cpus_1.commit.op_class_0::FloatMisc            0      0.00%     56.63% # Class of committed instruction
system.switch_cpus_1.commit.op_class_0::FloatSqrt            0      0.00%     56.63% # Class of committed instruction
system.switch_cpus_1.commit.op_class_0::SimdAdd            0      0.00%     56.63% # Class of committed instruction
system.switch_cpus_1.commit.op_class_0::SimdAddAcc            0      0.00%     56.63% # Class of committed instruction
system.switch_cpus_1.commit.op_class_0::SimdAlu            0      0.00%     56.63% # Class of committed instruction
system.switch_cpus_1.commit.op_class_0::SimdCmp            0      0.00%     56.63% # Class of committed instruction
system.switch_cpus_1.commit.op_class_0::SimdCvt            0      0.00%     56.63% # Class of committed instruction
system.switch_cpus_1.commit.op_class_0::SimdMisc            0      0.00%     56.63% # Class of committed instruction
system.switch_cpus_1.commit.op_class_0::SimdMult            0      0.00%     56.63% # Class of committed instruction
system.switch_cpus_1.commit.op_class_0::SimdMultAcc            0      0.00%     56.63% # Class of committed instruction
system.switch_cpus_1.commit.op_class_0::SimdShift            0      0.00%     56.63% # Class of committed instruction
system.switch_cpus_1.commit.op_class_0::SimdShiftAcc            0      0.00%     56.63% # Class of committed instruction
system.switch_cpus_1.commit.op_class_0::SimdSqrt            0      0.00%     56.63% # Class of committed instruction
system.switch_cpus_1.commit.op_class_0::SimdFloatAdd            0      0.00%     56.63% # Class of committed instruction
system.switch_cpus_1.commit.op_class_0::SimdFloatAlu            0      0.00%     56.63% # Class of committed instruction
system.switch_cpus_1.commit.op_class_0::SimdFloatCmp            0      0.00%     56.63% # Class of committed instruction
system.switch_cpus_1.commit.op_class_0::SimdFloatCvt            0      0.00%     56.63% # Class of committed instruction
system.switch_cpus_1.commit.op_class_0::SimdFloatDiv            0      0.00%     56.63% # Class of committed instruction
system.switch_cpus_1.commit.op_class_0::SimdFloatMisc            0      0.00%     56.63% # Class of committed instruction
system.switch_cpus_1.commit.op_class_0::SimdFloatMult            0      0.00%     56.63% # Class of committed instruction
system.switch_cpus_1.commit.op_class_0::SimdFloatMultAcc            0      0.00%     56.63% # Class of committed instruction
system.switch_cpus_1.commit.op_class_0::SimdFloatSqrt            0      0.00%     56.63% # Class of committed instruction
system.switch_cpus_1.commit.op_class_0::MemRead    307529452     30.08%     86.71% # Class of committed instruction
system.switch_cpus_1.commit.op_class_0::MemWrite    135633563     13.27%     99.97% # Class of committed instruction
system.switch_cpus_1.commit.op_class_0::FloatMemRead       119078      0.01%     99.99% # Class of committed instruction
system.switch_cpus_1.commit.op_class_0::FloatMemWrite       150853      0.01%    100.00% # Class of committed instruction
system.switch_cpus_1.commit.op_class_0::IprAccess            0      0.00%    100.00% # Class of committed instruction
system.switch_cpus_1.commit.op_class_0::InstPrefetch            0      0.00%    100.00% # Class of committed instruction
system.switch_cpus_1.commit.op_class_0::total   1022393832                       # Class of committed instruction
system.switch_cpus_1.commit.bw_lim_events     51508038                       # number cycles where commit BW limit reached
system.switch_cpus_1.rob.rob_reads         1913297483                       # The number of ROB reads
system.switch_cpus_1.rob.rob_writes        2466822199                       # The number of ROB writes
system.switch_cpus_1.timesIdled               2893701                       # Number of times that the entire CPU went into an idle state and unscheduled itself
system.switch_cpus_1.idleCycles              70338922                       # Total number of cycles that the CPU has spent unscheduled due to idling
system.switch_cpus_1.committedInsts        1000000002                       # Number of Instructions Simulated
system.switch_cpus_1.committedOps          1000000002                       # Number of Ops (including micro ops) Simulated
system.switch_cpus_1.cpi                     0.864950                       # CPI: Cycles Per Instruction
system.switch_cpus_1.cpi_total               0.864950                       # CPI: Total CPI of All Threads
system.switch_cpus_1.ipc                     1.156136                       # IPC: Instructions Per Cycle
system.switch_cpus_1.ipc_total               1.156136                       # IPC: Total IPC of All Threads
system.switch_cpus_1.int_regfile_reads     1439585101                       # number of integer regfile reads
system.switch_cpus_1.int_regfile_writes     783880090                       # number of integer regfile writes
system.switch_cpus_1.fp_regfile_reads          530058                       # number of floating regfile reads
system.switch_cpus_1.fp_regfile_writes         301858                       # number of floating regfile writes
system.switch_cpus_1.misc_regfile_reads        390557                       # number of misc regfile reads
system.switch_cpus_1.misc_regfile_writes       342047                       # number of misc regfile writes
system.tol3bus.snoop_filter.tot_requests      3247984                       # Total number of requests made to the snoop filter.
system.tol3bus.snoop_filter.hit_single_requests      1622050                       # Number of requests hitting in the snoop filter with a single holder of the requested data.
system.tol3bus.snoop_filter.hit_multi_requests            0                       # Number of requests hitting in the snoop filter with multiple (>1) holders of the requested data.
system.tol3bus.snoop_filter.tot_snoops          59264                       # Total number of snoops made to the snoop filter.
system.tol3bus.snoop_filter.hit_single_snoops        59264                       # Number of snoops hitting in the snoop filter with a single holder of the requested data.
system.tol3bus.snoop_filter.hit_multi_snoops            0                       # Number of snoops hitting in the snoop filter with multiple (>1) holders of the requested data.
system.tol3bus.pwrStateResidencyTicks::UNDEFINED 31317403850730                       # Cumulative time (in ticks) in various power states
system.tol3bus.trans_dist::ReadResp           1494784                       # Transaction distribution
system.tol3bus.trans_dist::WritebackDirty       463182                       # Transaction distribution
system.tol3bus.trans_dist::CleanEvict         1624322                       # Transaction distribution
system.tol3bus.trans_dist::UpgradeReq              15                       # Transaction distribution
system.tol3bus.trans_dist::UpgradeResp             15                       # Transaction distribution
system.tol3bus.trans_dist::ReadExReq           131150                       # Transaction distribution
system.tol3bus.trans_dist::ReadExResp          131150                       # Transaction distribution
system.tol3bus.trans_dist::ReadSharedReq      1494784                       # Transaction distribution
system.tol3bus.pkt_count_system.cpu.l2.mem_side::system.l3.cpu_side      4873933                       # Packet count per connected master and slave (bytes)
system.tol3bus.pkt_size_system.cpu.l2.mem_side::system.l3.cpu_side    128141376                       # Cumulative packet size per connected master and slave (bytes)
system.tol3bus.snoops                          465469                       # Total snoops (count)
system.tol3bus.snoopTraffic                   5562048                       # Total snoop traffic (bytes)
system.tol3bus.snoop_fanout::samples          2091418                       # Request fanout histogram
system.tol3bus.snoop_fanout::mean            0.028337                       # Request fanout histogram
system.tol3bus.snoop_fanout::stdev           0.165933                       # Request fanout histogram
system.tol3bus.snoop_fanout::underflows             0      0.00%      0.00% # Request fanout histogram
system.tol3bus.snoop_fanout::0                2032154     97.17%     97.17% # Request fanout histogram
system.tol3bus.snoop_fanout::1                  59264      2.83%    100.00% # Request fanout histogram
system.tol3bus.snoop_fanout::overflows              0      0.00%    100.00% # Request fanout histogram
system.tol3bus.snoop_fanout::min_value              0                       # Request fanout histogram
system.tol3bus.snoop_fanout::max_value              1                       # Request fanout histogram
system.tol3bus.snoop_fanout::total            2091418                       # Request fanout histogram
system.tol3bus.reqLayer0.occupancy         1206878247                       # Layer occupancy (ticks)
system.tol3bus.reqLayer0.utilization              0.1                       # Layer utilization (%)
system.tol3bus.respLayer0.occupancy        1082877039                       # Layer occupancy (ticks)
system.tol3bus.respLayer0.utilization             0.1                       # Layer utilization (%)

---------- End Simulation Statistics   ----------
