
---------- Begin Simulation Statistics ----------
sim_seconds                                  0.941782                       # Number of seconds simulated
sim_ticks                                941781505770                       # Number of ticks simulated
final_tick                               310789663390179                       # Number of ticks from beginning of simulation (restored from checkpoints and never reset)
sim_freq                                 1000000000000                       # Frequency of simulated ticks
host_inst_rate                                 630810                       # Simulator instruction rate (inst/s)
host_op_rate                                   630810                       # Simulator op (including micro ops) rate (op/s)
host_tick_rate                              495071365                       # Simulator tick rate (ticks/s)
host_mem_usage                                2399416                       # Number of bytes of host memory used
host_seconds                                  1902.31                       # Real time elapsed on the host
sim_insts                                  1200000007                       # Number of instructions simulated
sim_ops                                    1200000007                       # Number of ops (including micro ops) simulated
system.voltage_domain.voltage                       1                       # Voltage in Volts
system.clk_domain.clock                          1000                       # Clock period in ticks
system.mem_ctrls0.pwrStateResidencyTicks::UNDEFINED 310789663390179                       # Cumulative time (in ticks) in various power states
system.mem_ctrls0.bytes_read::cpu.inst             64                       # Number of bytes read from this memory
system.mem_ctrls0.bytes_read::switch_cpus.inst        25024                       # Number of bytes read from this memory
system.mem_ctrls0.bytes_read::switch_cpus.data      2627776                       # Number of bytes read from this memory
system.mem_ctrls0.bytes_read::switch_cpus_1.inst         7936                       # Number of bytes read from this memory
system.mem_ctrls0.bytes_read::switch_cpus_1.data       338240                       # Number of bytes read from this memory
system.mem_ctrls0.bytes_read::total           2999040                       # Number of bytes read from this memory
system.mem_ctrls0.bytes_inst_read::cpu.inst           64                       # Number of instructions bytes read from this memory
system.mem_ctrls0.bytes_inst_read::switch_cpus.inst        25024                       # Number of instructions bytes read from this memory
system.mem_ctrls0.bytes_inst_read::switch_cpus_1.inst         7936                       # Number of instructions bytes read from this memory
system.mem_ctrls0.bytes_inst_read::total        33024                       # Number of instructions bytes read from this memory
system.mem_ctrls0.bytes_written::writebacks       160448                       # Number of bytes written to this memory
system.mem_ctrls0.bytes_written::total         160448                       # Number of bytes written to this memory
system.mem_ctrls0.num_reads::cpu.inst               1                       # Number of read requests responded to by this memory
system.mem_ctrls0.num_reads::switch_cpus.inst          391                       # Number of read requests responded to by this memory
system.mem_ctrls0.num_reads::switch_cpus.data        41059                       # Number of read requests responded to by this memory
system.mem_ctrls0.num_reads::switch_cpus_1.inst          124                       # Number of read requests responded to by this memory
system.mem_ctrls0.num_reads::switch_cpus_1.data         5285                       # Number of read requests responded to by this memory
system.mem_ctrls0.num_reads::total              46860                       # Number of read requests responded to by this memory
system.mem_ctrls0.num_writes::writebacks         2507                       # Number of write requests responded to by this memory
system.mem_ctrls0.num_writes::total              2507                       # Number of write requests responded to by this memory
system.mem_ctrls0.bw_read::cpu.inst                68                       # Total read bandwidth from this memory (bytes/s)
system.mem_ctrls0.bw_read::switch_cpus.inst        26571                       # Total read bandwidth from this memory (bytes/s)
system.mem_ctrls0.bw_read::switch_cpus.data      2790218                       # Total read bandwidth from this memory (bytes/s)
system.mem_ctrls0.bw_read::switch_cpus_1.inst         8427                       # Total read bandwidth from this memory (bytes/s)
system.mem_ctrls0.bw_read::switch_cpus_1.data       359149                       # Total read bandwidth from this memory (bytes/s)
system.mem_ctrls0.bw_read::total              3184433                       # Total read bandwidth from this memory (bytes/s)
system.mem_ctrls0.bw_inst_read::cpu.inst           68                       # Instruction read bandwidth from this memory (bytes/s)
system.mem_ctrls0.bw_inst_read::switch_cpus.inst        26571                       # Instruction read bandwidth from this memory (bytes/s)
system.mem_ctrls0.bw_inst_read::switch_cpus_1.inst         8427                       # Instruction read bandwidth from this memory (bytes/s)
system.mem_ctrls0.bw_inst_read::total           35065                       # Instruction read bandwidth from this memory (bytes/s)
system.mem_ctrls0.bw_write::writebacks         170366                       # Write bandwidth from this memory (bytes/s)
system.mem_ctrls0.bw_write::total              170366                       # Write bandwidth from this memory (bytes/s)
system.mem_ctrls0.bw_total::writebacks         170366                       # Total bandwidth to/from this memory (bytes/s)
system.mem_ctrls0.bw_total::cpu.inst               68                       # Total bandwidth to/from this memory (bytes/s)
system.mem_ctrls0.bw_total::switch_cpus.inst        26571                       # Total bandwidth to/from this memory (bytes/s)
system.mem_ctrls0.bw_total::switch_cpus.data      2790218                       # Total bandwidth to/from this memory (bytes/s)
system.mem_ctrls0.bw_total::switch_cpus_1.inst         8427                       # Total bandwidth to/from this memory (bytes/s)
system.mem_ctrls0.bw_total::switch_cpus_1.data       359149                       # Total bandwidth to/from this memory (bytes/s)
system.mem_ctrls0.bw_total::total             3354799                       # Total bandwidth to/from this memory (bytes/s)
system.mem_ctrls0.readReqs                      46860                       # Number of read requests accepted
system.mem_ctrls0.writeReqs                      2507                       # Number of write requests accepted
system.mem_ctrls0.readBursts                    46860                       # Number of DRAM read bursts, including those serviced by the write queue
system.mem_ctrls0.writeBursts                    2507                       # Number of DRAM write bursts, including those merged in the write queue
system.mem_ctrls0.bytesReadDRAM               2988864                       # Total number of bytes read from DRAM
system.mem_ctrls0.bytesReadWrQ                  10176                       # Total number of bytes read from write queue
system.mem_ctrls0.bytesWritten                 158720                       # Total number of bytes written to DRAM
system.mem_ctrls0.bytesReadSys                2999040                       # Total read bytes from the system interface side
system.mem_ctrls0.bytesWrittenSys              160448                       # Total written bytes from the system interface side
system.mem_ctrls0.servicedByWrQ                   159                       # Number of DRAM read bursts serviced by the write queue
system.mem_ctrls0.mergedWrBursts                    0                       # Number of DRAM write bursts merged with an existing one
system.mem_ctrls0.neitherReadNorWriteReqs            0                       # Number of requests that are neither read nor write
system.mem_ctrls0.perBankRdBursts::0             3102                       # Per bank write bursts
system.mem_ctrls0.perBankRdBursts::1             3084                       # Per bank write bursts
system.mem_ctrls0.perBankRdBursts::2             2866                       # Per bank write bursts
system.mem_ctrls0.perBankRdBursts::3             2747                       # Per bank write bursts
system.mem_ctrls0.perBankRdBursts::4             2685                       # Per bank write bursts
system.mem_ctrls0.perBankRdBursts::5             2779                       # Per bank write bursts
system.mem_ctrls0.perBankRdBursts::6             2935                       # Per bank write bursts
system.mem_ctrls0.perBankRdBursts::7             3208                       # Per bank write bursts
system.mem_ctrls0.perBankRdBursts::8             3357                       # Per bank write bursts
system.mem_ctrls0.perBankRdBursts::9             3289                       # Per bank write bursts
system.mem_ctrls0.perBankRdBursts::10            2808                       # Per bank write bursts
system.mem_ctrls0.perBankRdBursts::11            2601                       # Per bank write bursts
system.mem_ctrls0.perBankRdBursts::12            2695                       # Per bank write bursts
system.mem_ctrls0.perBankRdBursts::13            2672                       # Per bank write bursts
system.mem_ctrls0.perBankRdBursts::14            2938                       # Per bank write bursts
system.mem_ctrls0.perBankRdBursts::15            2935                       # Per bank write bursts
system.mem_ctrls0.perBankWrBursts::0              298                       # Per bank write bursts
system.mem_ctrls0.perBankWrBursts::1              317                       # Per bank write bursts
system.mem_ctrls0.perBankWrBursts::2              145                       # Per bank write bursts
system.mem_ctrls0.perBankWrBursts::3               80                       # Per bank write bursts
system.mem_ctrls0.perBankWrBursts::4               81                       # Per bank write bursts
system.mem_ctrls0.perBankWrBursts::5               37                       # Per bank write bursts
system.mem_ctrls0.perBankWrBursts::6              153                       # Per bank write bursts
system.mem_ctrls0.perBankWrBursts::7              166                       # Per bank write bursts
system.mem_ctrls0.perBankWrBursts::8              228                       # Per bank write bursts
system.mem_ctrls0.perBankWrBursts::9              251                       # Per bank write bursts
system.mem_ctrls0.perBankWrBursts::10             104                       # Per bank write bursts
system.mem_ctrls0.perBankWrBursts::11              45                       # Per bank write bursts
system.mem_ctrls0.perBankWrBursts::12              53                       # Per bank write bursts
system.mem_ctrls0.perBankWrBursts::13              56                       # Per bank write bursts
system.mem_ctrls0.perBankWrBursts::14             224                       # Per bank write bursts
system.mem_ctrls0.perBankWrBursts::15             242                       # Per bank write bursts
system.mem_ctrls0.numRdRetry                        0                       # Number of times read queue was full causing retry
system.mem_ctrls0.numWrRetry                        0                       # Number of times write queue was full causing retry
system.mem_ctrls0.totGap                 941781470139                       # Total gap between requests
system.mem_ctrls0.readPktSize::0                    0                       # Read request sizes (log2)
system.mem_ctrls0.readPktSize::1                    0                       # Read request sizes (log2)
system.mem_ctrls0.readPktSize::2                    0                       # Read request sizes (log2)
system.mem_ctrls0.readPktSize::3                    0                       # Read request sizes (log2)
system.mem_ctrls0.readPktSize::4                    0                       # Read request sizes (log2)
system.mem_ctrls0.readPktSize::5                    0                       # Read request sizes (log2)
system.mem_ctrls0.readPktSize::6                46860                       # Read request sizes (log2)
system.mem_ctrls0.writePktSize::0                   0                       # Write request sizes (log2)
system.mem_ctrls0.writePktSize::1                   0                       # Write request sizes (log2)
system.mem_ctrls0.writePktSize::2                   0                       # Write request sizes (log2)
system.mem_ctrls0.writePktSize::3                   0                       # Write request sizes (log2)
system.mem_ctrls0.writePktSize::4                   0                       # Write request sizes (log2)
system.mem_ctrls0.writePktSize::5                   0                       # Write request sizes (log2)
system.mem_ctrls0.writePktSize::6                2507                       # Write request sizes (log2)
system.mem_ctrls0.rdQLenPdf::0                  45725                       # What read queue length does an incoming req see
system.mem_ctrls0.rdQLenPdf::1                    967                       # What read queue length does an incoming req see
system.mem_ctrls0.rdQLenPdf::2                      7                       # What read queue length does an incoming req see
system.mem_ctrls0.rdQLenPdf::3                      2                       # What read queue length does an incoming req see
system.mem_ctrls0.rdQLenPdf::4                      0                       # What read queue length does an incoming req see
system.mem_ctrls0.rdQLenPdf::5                      0                       # What read queue length does an incoming req see
system.mem_ctrls0.rdQLenPdf::6                      0                       # What read queue length does an incoming req see
system.mem_ctrls0.rdQLenPdf::7                      0                       # What read queue length does an incoming req see
system.mem_ctrls0.rdQLenPdf::8                      0                       # What read queue length does an incoming req see
system.mem_ctrls0.rdQLenPdf::9                      0                       # What read queue length does an incoming req see
system.mem_ctrls0.rdQLenPdf::10                     0                       # What read queue length does an incoming req see
system.mem_ctrls0.rdQLenPdf::11                     0                       # What read queue length does an incoming req see
system.mem_ctrls0.rdQLenPdf::12                     0                       # What read queue length does an incoming req see
system.mem_ctrls0.rdQLenPdf::13                     0                       # What read queue length does an incoming req see
system.mem_ctrls0.rdQLenPdf::14                     0                       # What read queue length does an incoming req see
system.mem_ctrls0.rdQLenPdf::15                     0                       # What read queue length does an incoming req see
system.mem_ctrls0.rdQLenPdf::16                     0                       # What read queue length does an incoming req see
system.mem_ctrls0.rdQLenPdf::17                     0                       # What read queue length does an incoming req see
system.mem_ctrls0.rdQLenPdf::18                     0                       # What read queue length does an incoming req see
system.mem_ctrls0.rdQLenPdf::19                     0                       # What read queue length does an incoming req see
system.mem_ctrls0.rdQLenPdf::20                     0                       # What read queue length does an incoming req see
system.mem_ctrls0.rdQLenPdf::21                     0                       # What read queue length does an incoming req see
system.mem_ctrls0.rdQLenPdf::22                     0                       # What read queue length does an incoming req see
system.mem_ctrls0.rdQLenPdf::23                     0                       # What read queue length does an incoming req see
system.mem_ctrls0.rdQLenPdf::24                     0                       # What read queue length does an incoming req see
system.mem_ctrls0.rdQLenPdf::25                     0                       # What read queue length does an incoming req see
system.mem_ctrls0.rdQLenPdf::26                     0                       # What read queue length does an incoming req see
system.mem_ctrls0.rdQLenPdf::27                     0                       # What read queue length does an incoming req see
system.mem_ctrls0.rdQLenPdf::28                     0                       # What read queue length does an incoming req see
system.mem_ctrls0.rdQLenPdf::29                     0                       # What read queue length does an incoming req see
system.mem_ctrls0.rdQLenPdf::30                     0                       # What read queue length does an incoming req see
system.mem_ctrls0.rdQLenPdf::31                     0                       # What read queue length does an incoming req see
system.mem_ctrls0.wrQLenPdf::0                      2                       # What write queue length does an incoming req see
system.mem_ctrls0.wrQLenPdf::1                      2                       # What write queue length does an incoming req see
system.mem_ctrls0.wrQLenPdf::2                      2                       # What write queue length does an incoming req see
system.mem_ctrls0.wrQLenPdf::3                      2                       # What write queue length does an incoming req see
system.mem_ctrls0.wrQLenPdf::4                      2                       # What write queue length does an incoming req see
system.mem_ctrls0.wrQLenPdf::5                      2                       # What write queue length does an incoming req see
system.mem_ctrls0.wrQLenPdf::6                      2                       # What write queue length does an incoming req see
system.mem_ctrls0.wrQLenPdf::7                      2                       # What write queue length does an incoming req see
system.mem_ctrls0.wrQLenPdf::8                      2                       # What write queue length does an incoming req see
system.mem_ctrls0.wrQLenPdf::9                      2                       # What write queue length does an incoming req see
system.mem_ctrls0.wrQLenPdf::10                     2                       # What write queue length does an incoming req see
system.mem_ctrls0.wrQLenPdf::11                     2                       # What write queue length does an incoming req see
system.mem_ctrls0.wrQLenPdf::12                     2                       # What write queue length does an incoming req see
system.mem_ctrls0.wrQLenPdf::13                     2                       # What write queue length does an incoming req see
system.mem_ctrls0.wrQLenPdf::14                     2                       # What write queue length does an incoming req see
system.mem_ctrls0.wrQLenPdf::15                    74                       # What write queue length does an incoming req see
system.mem_ctrls0.wrQLenPdf::16                    79                       # What write queue length does an incoming req see
system.mem_ctrls0.wrQLenPdf::17                   134                       # What write queue length does an incoming req see
system.mem_ctrls0.wrQLenPdf::18                   141                       # What write queue length does an incoming req see
system.mem_ctrls0.wrQLenPdf::19                   144                       # What write queue length does an incoming req see
system.mem_ctrls0.wrQLenPdf::20                   146                       # What write queue length does an incoming req see
system.mem_ctrls0.wrQLenPdf::21                   146                       # What write queue length does an incoming req see
system.mem_ctrls0.wrQLenPdf::22                   146                       # What write queue length does an incoming req see
system.mem_ctrls0.wrQLenPdf::23                   146                       # What write queue length does an incoming req see
system.mem_ctrls0.wrQLenPdf::24                   148                       # What write queue length does an incoming req see
system.mem_ctrls0.wrQLenPdf::25                   148                       # What write queue length does an incoming req see
system.mem_ctrls0.wrQLenPdf::26                   147                       # What write queue length does an incoming req see
system.mem_ctrls0.wrQLenPdf::27                   147                       # What write queue length does an incoming req see
system.mem_ctrls0.wrQLenPdf::28                   146                       # What write queue length does an incoming req see
system.mem_ctrls0.wrQLenPdf::29                   150                       # What write queue length does an incoming req see
system.mem_ctrls0.wrQLenPdf::30                   146                       # What write queue length does an incoming req see
system.mem_ctrls0.wrQLenPdf::31                   144                       # What write queue length does an incoming req see
system.mem_ctrls0.wrQLenPdf::32                   144                       # What write queue length does an incoming req see
system.mem_ctrls0.wrQLenPdf::33                     1                       # What write queue length does an incoming req see
system.mem_ctrls0.wrQLenPdf::34                     0                       # What write queue length does an incoming req see
system.mem_ctrls0.wrQLenPdf::35                     0                       # What write queue length does an incoming req see
system.mem_ctrls0.wrQLenPdf::36                     0                       # What write queue length does an incoming req see
system.mem_ctrls0.wrQLenPdf::37                     0                       # What write queue length does an incoming req see
system.mem_ctrls0.wrQLenPdf::38                     0                       # What write queue length does an incoming req see
system.mem_ctrls0.wrQLenPdf::39                     0                       # What write queue length does an incoming req see
system.mem_ctrls0.wrQLenPdf::40                     0                       # What write queue length does an incoming req see
system.mem_ctrls0.wrQLenPdf::41                     0                       # What write queue length does an incoming req see
system.mem_ctrls0.wrQLenPdf::42                     0                       # What write queue length does an incoming req see
system.mem_ctrls0.wrQLenPdf::43                     0                       # What write queue length does an incoming req see
system.mem_ctrls0.wrQLenPdf::44                     0                       # What write queue length does an incoming req see
system.mem_ctrls0.wrQLenPdf::45                     0                       # What write queue length does an incoming req see
system.mem_ctrls0.wrQLenPdf::46                     0                       # What write queue length does an incoming req see
system.mem_ctrls0.wrQLenPdf::47                     0                       # What write queue length does an incoming req see
system.mem_ctrls0.wrQLenPdf::48                     0                       # What write queue length does an incoming req see
system.mem_ctrls0.wrQLenPdf::49                     0                       # What write queue length does an incoming req see
system.mem_ctrls0.wrQLenPdf::50                     0                       # What write queue length does an incoming req see
system.mem_ctrls0.wrQLenPdf::51                     0                       # What write queue length does an incoming req see
system.mem_ctrls0.wrQLenPdf::52                     0                       # What write queue length does an incoming req see
system.mem_ctrls0.wrQLenPdf::53                     0                       # What write queue length does an incoming req see
system.mem_ctrls0.wrQLenPdf::54                     0                       # What write queue length does an incoming req see
system.mem_ctrls0.wrQLenPdf::55                     0                       # What write queue length does an incoming req see
system.mem_ctrls0.wrQLenPdf::56                     0                       # What write queue length does an incoming req see
system.mem_ctrls0.wrQLenPdf::57                     0                       # What write queue length does an incoming req see
system.mem_ctrls0.wrQLenPdf::58                     0                       # What write queue length does an incoming req see
system.mem_ctrls0.wrQLenPdf::59                     0                       # What write queue length does an incoming req see
system.mem_ctrls0.wrQLenPdf::60                     0                       # What write queue length does an incoming req see
system.mem_ctrls0.wrQLenPdf::61                     0                       # What write queue length does an incoming req see
system.mem_ctrls0.wrQLenPdf::62                     0                       # What write queue length does an incoming req see
system.mem_ctrls0.wrQLenPdf::63                     0                       # What write queue length does an incoming req see
system.mem_ctrls0.bytesPerActivate::samples        24381                       # Bytes accessed per row activation
system.mem_ctrls0.bytesPerActivate::mean   129.078873                       # Bytes accessed per row activation
system.mem_ctrls0.bytesPerActivate::gmean   113.383541                       # Bytes accessed per row activation
system.mem_ctrls0.bytesPerActivate::stdev   111.299020                       # Bytes accessed per row activation
system.mem_ctrls0.bytesPerActivate::0-127         6066     24.88%     24.88% # Bytes accessed per row activation
system.mem_ctrls0.bytesPerActivate::128-255        17526     71.88%     96.76% # Bytes accessed per row activation
system.mem_ctrls0.bytesPerActivate::256-383          210      0.86%     97.63% # Bytes accessed per row activation
system.mem_ctrls0.bytesPerActivate::384-511          109      0.45%     98.07% # Bytes accessed per row activation
system.mem_ctrls0.bytesPerActivate::512-639           92      0.38%     98.45% # Bytes accessed per row activation
system.mem_ctrls0.bytesPerActivate::640-767           67      0.27%     98.72% # Bytes accessed per row activation
system.mem_ctrls0.bytesPerActivate::768-895           42      0.17%     98.90% # Bytes accessed per row activation
system.mem_ctrls0.bytesPerActivate::896-1023           41      0.17%     99.06% # Bytes accessed per row activation
system.mem_ctrls0.bytesPerActivate::1024-1151          228      0.94%    100.00% # Bytes accessed per row activation
system.mem_ctrls0.bytesPerActivate::total        24381                       # Bytes accessed per row activation
system.mem_ctrls0.rdPerTurnAround::samples          144                       # Reads before turning the bus around for writes
system.mem_ctrls0.rdPerTurnAround::mean    324.312500                       # Reads before turning the bus around for writes
system.mem_ctrls0.rdPerTurnAround::stdev  3235.821080                       # Reads before turning the bus around for writes
system.mem_ctrls0.rdPerTurnAround::0-2047          143     99.31%     99.31% # Reads before turning the bus around for writes
system.mem_ctrls0.rdPerTurnAround::36864-38911            1      0.69%    100.00% # Reads before turning the bus around for writes
system.mem_ctrls0.rdPerTurnAround::total          144                       # Reads before turning the bus around for writes
system.mem_ctrls0.wrPerTurnAround::samples          144                       # Writes before turning the bus around for reads
system.mem_ctrls0.wrPerTurnAround::mean     17.222222                       # Writes before turning the bus around for reads
system.mem_ctrls0.wrPerTurnAround::gmean    17.173062                       # Writes before turning the bus around for reads
system.mem_ctrls0.wrPerTurnAround::stdev     1.355870                       # Writes before turning the bus around for reads
system.mem_ctrls0.wrPerTurnAround::16              66     45.83%     45.83% # Writes before turning the bus around for reads
system.mem_ctrls0.wrPerTurnAround::17               4      2.78%     48.61% # Writes before turning the bus around for reads
system.mem_ctrls0.wrPerTurnAround::18              58     40.28%     88.89% # Writes before turning the bus around for reads
system.mem_ctrls0.wrPerTurnAround::19              14      9.72%     98.61% # Writes before turning the bus around for reads
system.mem_ctrls0.wrPerTurnAround::20               1      0.69%     99.31% # Writes before turning the bus around for reads
system.mem_ctrls0.wrPerTurnAround::26               1      0.69%    100.00% # Writes before turning the bus around for reads
system.mem_ctrls0.wrPerTurnAround::total          144                       # Writes before turning the bus around for reads
system.mem_ctrls0.totQLat                  9311394567                       # Total ticks spent queuing
system.mem_ctrls0.totMemAccLat            10187038317                       # Total ticks spent from burst creation until serviced by the DRAM
system.mem_ctrls0.totBusLat                 233505000                       # Total ticks spent in databus transfers
system.mem_ctrls0.avgQLat                   199383.19                       # Average queueing delay per DRAM burst
system.mem_ctrls0.avgBusLat                   5000.00                       # Average bus latency per DRAM burst
system.mem_ctrls0.avgMemAccLat              218133.19                       # Average memory access latency per DRAM burst
system.mem_ctrls0.avgRdBW                        3.17                       # Average DRAM read bandwidth in MiByte/s
system.mem_ctrls0.avgWrBW                        0.17                       # Average achieved write bandwidth in MiByte/s
system.mem_ctrls0.avgRdBWSys                     3.18                       # Average system read bandwidth in MiByte/s
system.mem_ctrls0.avgWrBWSys                     0.17                       # Average system write bandwidth in MiByte/s
system.mem_ctrls0.peakBW                     12800.00                       # Theoretical peak bandwidth in MiByte/s
system.mem_ctrls0.busUtil                        0.03                       # Data bus utilization in percentage
system.mem_ctrls0.busUtilRead                    0.02                       # Data bus utilization in percentage for reads
system.mem_ctrls0.busUtilWrite                   0.00                       # Data bus utilization in percentage for writes
system.mem_ctrls0.avgRdQLen                      1.01                       # Average read queue length when enqueuing
system.mem_ctrls0.avgWrQLen                      8.75                       # Average write queue length when enqueuing
system.mem_ctrls0.readRowHits                   23412                       # Number of row buffer hits during reads
system.mem_ctrls0.writeRowHits                   1381                       # Number of row buffer hits during writes
system.mem_ctrls0.readRowHitRate                50.13                       # Row buffer hit rate for reads
system.mem_ctrls0.writeRowHitRate               55.09                       # Row buffer hit rate for writes
system.mem_ctrls0.avgGap                  19077146.07                       # Average gap between requests
system.mem_ctrls0.pageHitRate                   50.38                       # Row buffer hit rate, read and write combined
system.mem_ctrls0_0.actEnergy                90935040                       # Energy for activate commands per rank (pJ)
system.mem_ctrls0_0.preEnergy                48325530                       # Energy for precharge commands per rank (pJ)
system.mem_ctrls0_0.readEnergy              167118840                       # Energy for read commands per rank (pJ)
system.mem_ctrls0_0.writeEnergy               6665940                       # Energy for write commands per rank (pJ)
system.mem_ctrls0_0.refreshEnergy        15707125200.000004                       # Energy for refresh commands per rank (pJ)
system.mem_ctrls0_0.actBackEnergy          3380341680                       # Energy for active background per rank (pJ)
system.mem_ctrls0_0.preBackEnergy          1020689280                       # Energy for precharge background per rank (pJ)
system.mem_ctrls0_0.actPowerDownEnergy    30767445750                       # Energy for active power-down per rank (pJ)
system.mem_ctrls0_0.prePowerDownEnergy    24663328320                       # Energy for precharge power-down per rank (pJ)
system.mem_ctrls0_0.selfRefreshEnergy    196364853345                       # Energy for self refresh per rank (pJ)
system.mem_ctrls0_0.totalEnergy          272230004115                       # Total energy per rank (pJ)
system.mem_ctrls0_0.averagePower           289.058557                       # Core power per rank (mW)
system.mem_ctrls0_0.totalIdleTime        931680867519                       # Total Idle time Per DRAM Rank
system.mem_ctrls0_0.memoryStateTime::IDLE   2152865051                       # Time in different power states
system.mem_ctrls0_0.memoryStateTime::REF   6692090000                       # Time in different power states
system.mem_ctrls0_0.memoryStateTime::SREF 799981119284                       # Time in different power states
system.mem_ctrls0_0.memoryStateTime::PRE_PDN  64227393146                       # Time in different power states
system.mem_ctrls0_0.memoryStateTime::ACT   1255683200                       # Time in different power states
system.mem_ctrls0_0.memoryStateTime::ACT_PDN  67472355089                       # Time in different power states
system.mem_ctrls0_1.actEnergy                83195280                       # Energy for activate commands per rank (pJ)
system.mem_ctrls0_1.preEnergy                44200365                       # Energy for precharge commands per rank (pJ)
system.mem_ctrls0_1.readEnergy              166326300                       # Energy for read commands per rank (pJ)
system.mem_ctrls0_1.writeEnergy               6279660                       # Energy for write commands per rank (pJ)
system.mem_ctrls0_1.refreshEnergy        16808560080.000004                       # Energy for refresh commands per rank (pJ)
system.mem_ctrls0_1.actBackEnergy          3567054300                       # Energy for active background per rank (pJ)
system.mem_ctrls0_1.preBackEnergy          1111744800                       # Energy for precharge background per rank (pJ)
system.mem_ctrls0_1.actPowerDownEnergy    32114808900                       # Energy for active power-down per rank (pJ)
system.mem_ctrls0_1.prePowerDownEnergy    26567935680                       # Energy for precharge power-down per rank (pJ)
system.mem_ctrls0_1.selfRefreshEnergy    194721462180                       # Energy for self refresh per rank (pJ)
system.mem_ctrls0_1.totalEnergy          275204509665                       # Total energy per rank (pJ)
system.mem_ctrls0_1.averagePower           292.216936                       # Core power per rank (mW)
system.mem_ctrls0_1.totalIdleTime        931035227022                       # Total Idle time Per DRAM Rank
system.mem_ctrls0_1.memoryStateTime::IDLE   2354191272                       # Time in different power states
system.mem_ctrls0_1.memoryStateTime::REF   7162450000                       # Time in different power states
system.mem_ctrls0_1.memoryStateTime::SREF 791420405207                       # Time in different power states
system.mem_ctrls0_1.memoryStateTime::PRE_PDN  69187422232                       # Time in different power states
system.mem_ctrls0_1.memoryStateTime::ACT   1229637476                       # Time in different power states
system.mem_ctrls0_1.memoryStateTime::ACT_PDN  70427399583                       # Time in different power states
system.mem_ctrls1.pwrStateResidencyTicks::UNDEFINED 310789663390179                       # Cumulative time (in ticks) in various power states
system.mem_ctrls1.bytes_read::cpu.inst            128                       # Number of bytes read from this memory
system.mem_ctrls1.bytes_read::switch_cpus.inst        25344                       # Number of bytes read from this memory
system.mem_ctrls1.bytes_read::switch_cpus.data      2626304                       # Number of bytes read from this memory
system.mem_ctrls1.bytes_read::switch_cpus_1.inst         7872                       # Number of bytes read from this memory
system.mem_ctrls1.bytes_read::switch_cpus_1.data       341760                       # Number of bytes read from this memory
system.mem_ctrls1.bytes_read::total           3001408                       # Number of bytes read from this memory
system.mem_ctrls1.bytes_inst_read::cpu.inst          128                       # Number of instructions bytes read from this memory
system.mem_ctrls1.bytes_inst_read::switch_cpus.inst        25344                       # Number of instructions bytes read from this memory
system.mem_ctrls1.bytes_inst_read::switch_cpus_1.inst         7872                       # Number of instructions bytes read from this memory
system.mem_ctrls1.bytes_inst_read::total        33344                       # Number of instructions bytes read from this memory
system.mem_ctrls1.bytes_written::writebacks       162624                       # Number of bytes written to this memory
system.mem_ctrls1.bytes_written::total         162624                       # Number of bytes written to this memory
system.mem_ctrls1.num_reads::cpu.inst               2                       # Number of read requests responded to by this memory
system.mem_ctrls1.num_reads::switch_cpus.inst          396                       # Number of read requests responded to by this memory
system.mem_ctrls1.num_reads::switch_cpus.data        41036                       # Number of read requests responded to by this memory
system.mem_ctrls1.num_reads::switch_cpus_1.inst          123                       # Number of read requests responded to by this memory
system.mem_ctrls1.num_reads::switch_cpus_1.data         5340                       # Number of read requests responded to by this memory
system.mem_ctrls1.num_reads::total              46897                       # Number of read requests responded to by this memory
system.mem_ctrls1.num_writes::writebacks         2541                       # Number of write requests responded to by this memory
system.mem_ctrls1.num_writes::total              2541                       # Number of write requests responded to by this memory
system.mem_ctrls1.bw_read::cpu.inst               136                       # Total read bandwidth from this memory (bytes/s)
system.mem_ctrls1.bw_read::switch_cpus.inst        26911                       # Total read bandwidth from this memory (bytes/s)
system.mem_ctrls1.bw_read::switch_cpus.data      2788655                       # Total read bandwidth from this memory (bytes/s)
system.mem_ctrls1.bw_read::switch_cpus_1.inst         8359                       # Total read bandwidth from this memory (bytes/s)
system.mem_ctrls1.bw_read::switch_cpus_1.data       362887                       # Total read bandwidth from this memory (bytes/s)
system.mem_ctrls1.bw_read::total              3186947                       # Total read bandwidth from this memory (bytes/s)
system.mem_ctrls1.bw_inst_read::cpu.inst          136                       # Instruction read bandwidth from this memory (bytes/s)
system.mem_ctrls1.bw_inst_read::switch_cpus.inst        26911                       # Instruction read bandwidth from this memory (bytes/s)
system.mem_ctrls1.bw_inst_read::switch_cpus_1.inst         8359                       # Instruction read bandwidth from this memory (bytes/s)
system.mem_ctrls1.bw_inst_read::total           35405                       # Instruction read bandwidth from this memory (bytes/s)
system.mem_ctrls1.bw_write::writebacks         172677                       # Write bandwidth from this memory (bytes/s)
system.mem_ctrls1.bw_write::total              172677                       # Write bandwidth from this memory (bytes/s)
system.mem_ctrls1.bw_total::writebacks         172677                       # Total bandwidth to/from this memory (bytes/s)
system.mem_ctrls1.bw_total::cpu.inst              136                       # Total bandwidth to/from this memory (bytes/s)
system.mem_ctrls1.bw_total::switch_cpus.inst        26911                       # Total bandwidth to/from this memory (bytes/s)
system.mem_ctrls1.bw_total::switch_cpus.data      2788655                       # Total bandwidth to/from this memory (bytes/s)
system.mem_ctrls1.bw_total::switch_cpus_1.inst         8359                       # Total bandwidth to/from this memory (bytes/s)
system.mem_ctrls1.bw_total::switch_cpus_1.data       362887                       # Total bandwidth to/from this memory (bytes/s)
system.mem_ctrls1.bw_total::total             3359624                       # Total bandwidth to/from this memory (bytes/s)
system.mem_ctrls1.readReqs                      46897                       # Number of read requests accepted
system.mem_ctrls1.writeReqs                      2541                       # Number of write requests accepted
system.mem_ctrls1.readBursts                    46897                       # Number of DRAM read bursts, including those serviced by the write queue
system.mem_ctrls1.writeBursts                    2541                       # Number of DRAM write bursts, including those merged in the write queue
system.mem_ctrls1.bytesReadDRAM               2991488                       # Total number of bytes read from DRAM
system.mem_ctrls1.bytesReadWrQ                   9920                       # Total number of bytes read from write queue
system.mem_ctrls1.bytesWritten                 161024                       # Total number of bytes written to DRAM
system.mem_ctrls1.bytesReadSys                3001408                       # Total read bytes from the system interface side
system.mem_ctrls1.bytesWrittenSys              162624                       # Total written bytes from the system interface side
system.mem_ctrls1.servicedByWrQ                   155                       # Number of DRAM read bursts serviced by the write queue
system.mem_ctrls1.mergedWrBursts                    2                       # Number of DRAM write bursts merged with an existing one
system.mem_ctrls1.neitherReadNorWriteReqs            0                       # Number of requests that are neither read nor write
system.mem_ctrls1.perBankRdBursts::0             3136                       # Per bank write bursts
system.mem_ctrls1.perBankRdBursts::1             3030                       # Per bank write bursts
system.mem_ctrls1.perBankRdBursts::2             2865                       # Per bank write bursts
system.mem_ctrls1.perBankRdBursts::3             2767                       # Per bank write bursts
system.mem_ctrls1.perBankRdBursts::4             2682                       # Per bank write bursts
system.mem_ctrls1.perBankRdBursts::5             2764                       # Per bank write bursts
system.mem_ctrls1.perBankRdBursts::6             2949                       # Per bank write bursts
system.mem_ctrls1.perBankRdBursts::7             3208                       # Per bank write bursts
system.mem_ctrls1.perBankRdBursts::8             3387                       # Per bank write bursts
system.mem_ctrls1.perBankRdBursts::9             3292                       # Per bank write bursts
system.mem_ctrls1.perBankRdBursts::10            2818                       # Per bank write bursts
system.mem_ctrls1.perBankRdBursts::11            2600                       # Per bank write bursts
system.mem_ctrls1.perBankRdBursts::12            2699                       # Per bank write bursts
system.mem_ctrls1.perBankRdBursts::13            2690                       # Per bank write bursts
system.mem_ctrls1.perBankRdBursts::14            2905                       # Per bank write bursts
system.mem_ctrls1.perBankRdBursts::15            2950                       # Per bank write bursts
system.mem_ctrls1.perBankWrBursts::0              349                       # Per bank write bursts
system.mem_ctrls1.perBankWrBursts::1              279                       # Per bank write bursts
system.mem_ctrls1.perBankWrBursts::2              138                       # Per bank write bursts
system.mem_ctrls1.perBankWrBursts::3               84                       # Per bank write bursts
system.mem_ctrls1.perBankWrBursts::4               64                       # Per bank write bursts
system.mem_ctrls1.perBankWrBursts::5               35                       # Per bank write bursts
system.mem_ctrls1.perBankWrBursts::6              146                       # Per bank write bursts
system.mem_ctrls1.perBankWrBursts::7              174                       # Per bank write bursts
system.mem_ctrls1.perBankWrBursts::8              233                       # Per bank write bursts
system.mem_ctrls1.perBankWrBursts::9              287                       # Per bank write bursts
system.mem_ctrls1.perBankWrBursts::10             115                       # Per bank write bursts
system.mem_ctrls1.perBankWrBursts::11              41                       # Per bank write bursts
system.mem_ctrls1.perBankWrBursts::12              61                       # Per bank write bursts
system.mem_ctrls1.perBankWrBursts::13              62                       # Per bank write bursts
system.mem_ctrls1.perBankWrBursts::14             194                       # Per bank write bursts
system.mem_ctrls1.perBankWrBursts::15             254                       # Per bank write bursts
system.mem_ctrls1.numRdRetry                        0                       # Number of times read queue was full causing retry
system.mem_ctrls1.numWrRetry                        0                       # Number of times write queue was full causing retry
system.mem_ctrls1.totGap                 941781363246                       # Total gap between requests
system.mem_ctrls1.readPktSize::0                    0                       # Read request sizes (log2)
system.mem_ctrls1.readPktSize::1                    0                       # Read request sizes (log2)
system.mem_ctrls1.readPktSize::2                    0                       # Read request sizes (log2)
system.mem_ctrls1.readPktSize::3                    0                       # Read request sizes (log2)
system.mem_ctrls1.readPktSize::4                    0                       # Read request sizes (log2)
system.mem_ctrls1.readPktSize::5                    0                       # Read request sizes (log2)
system.mem_ctrls1.readPktSize::6                46897                       # Read request sizes (log2)
system.mem_ctrls1.writePktSize::0                   0                       # Write request sizes (log2)
system.mem_ctrls1.writePktSize::1                   0                       # Write request sizes (log2)
system.mem_ctrls1.writePktSize::2                   0                       # Write request sizes (log2)
system.mem_ctrls1.writePktSize::3                   0                       # Write request sizes (log2)
system.mem_ctrls1.writePktSize::4                   0                       # Write request sizes (log2)
system.mem_ctrls1.writePktSize::5                   0                       # Write request sizes (log2)
system.mem_ctrls1.writePktSize::6                2541                       # Write request sizes (log2)
system.mem_ctrls1.rdQLenPdf::0                  45486                       # What read queue length does an incoming req see
system.mem_ctrls1.rdQLenPdf::1                   1256                       # What read queue length does an incoming req see
system.mem_ctrls1.rdQLenPdf::2                      0                       # What read queue length does an incoming req see
system.mem_ctrls1.rdQLenPdf::3                      0                       # What read queue length does an incoming req see
system.mem_ctrls1.rdQLenPdf::4                      0                       # What read queue length does an incoming req see
system.mem_ctrls1.rdQLenPdf::5                      0                       # What read queue length does an incoming req see
system.mem_ctrls1.rdQLenPdf::6                      0                       # What read queue length does an incoming req see
system.mem_ctrls1.rdQLenPdf::7                      0                       # What read queue length does an incoming req see
system.mem_ctrls1.rdQLenPdf::8                      0                       # What read queue length does an incoming req see
system.mem_ctrls1.rdQLenPdf::9                      0                       # What read queue length does an incoming req see
system.mem_ctrls1.rdQLenPdf::10                     0                       # What read queue length does an incoming req see
system.mem_ctrls1.rdQLenPdf::11                     0                       # What read queue length does an incoming req see
system.mem_ctrls1.rdQLenPdf::12                     0                       # What read queue length does an incoming req see
system.mem_ctrls1.rdQLenPdf::13                     0                       # What read queue length does an incoming req see
system.mem_ctrls1.rdQLenPdf::14                     0                       # What read queue length does an incoming req see
system.mem_ctrls1.rdQLenPdf::15                     0                       # What read queue length does an incoming req see
system.mem_ctrls1.rdQLenPdf::16                     0                       # What read queue length does an incoming req see
system.mem_ctrls1.rdQLenPdf::17                     0                       # What read queue length does an incoming req see
system.mem_ctrls1.rdQLenPdf::18                     0                       # What read queue length does an incoming req see
system.mem_ctrls1.rdQLenPdf::19                     0                       # What read queue length does an incoming req see
system.mem_ctrls1.rdQLenPdf::20                     0                       # What read queue length does an incoming req see
system.mem_ctrls1.rdQLenPdf::21                     0                       # What read queue length does an incoming req see
system.mem_ctrls1.rdQLenPdf::22                     0                       # What read queue length does an incoming req see
system.mem_ctrls1.rdQLenPdf::23                     0                       # What read queue length does an incoming req see
system.mem_ctrls1.rdQLenPdf::24                     0                       # What read queue length does an incoming req see
system.mem_ctrls1.rdQLenPdf::25                     0                       # What read queue length does an incoming req see
system.mem_ctrls1.rdQLenPdf::26                     0                       # What read queue length does an incoming req see
system.mem_ctrls1.rdQLenPdf::27                     0                       # What read queue length does an incoming req see
system.mem_ctrls1.rdQLenPdf::28                     0                       # What read queue length does an incoming req see
system.mem_ctrls1.rdQLenPdf::29                     0                       # What read queue length does an incoming req see
system.mem_ctrls1.rdQLenPdf::30                     0                       # What read queue length does an incoming req see
system.mem_ctrls1.rdQLenPdf::31                     0                       # What read queue length does an incoming req see
system.mem_ctrls1.wrQLenPdf::0                      2                       # What write queue length does an incoming req see
system.mem_ctrls1.wrQLenPdf::1                      2                       # What write queue length does an incoming req see
system.mem_ctrls1.wrQLenPdf::2                      2                       # What write queue length does an incoming req see
system.mem_ctrls1.wrQLenPdf::3                      2                       # What write queue length does an incoming req see
system.mem_ctrls1.wrQLenPdf::4                      2                       # What write queue length does an incoming req see
system.mem_ctrls1.wrQLenPdf::5                      2                       # What write queue length does an incoming req see
system.mem_ctrls1.wrQLenPdf::6                      2                       # What write queue length does an incoming req see
system.mem_ctrls1.wrQLenPdf::7                      2                       # What write queue length does an incoming req see
system.mem_ctrls1.wrQLenPdf::8                      2                       # What write queue length does an incoming req see
system.mem_ctrls1.wrQLenPdf::9                      2                       # What write queue length does an incoming req see
system.mem_ctrls1.wrQLenPdf::10                     2                       # What write queue length does an incoming req see
system.mem_ctrls1.wrQLenPdf::11                     2                       # What write queue length does an incoming req see
system.mem_ctrls1.wrQLenPdf::12                     2                       # What write queue length does an incoming req see
system.mem_ctrls1.wrQLenPdf::13                     2                       # What write queue length does an incoming req see
system.mem_ctrls1.wrQLenPdf::14                     2                       # What write queue length does an incoming req see
system.mem_ctrls1.wrQLenPdf::15                    72                       # What write queue length does an incoming req see
system.mem_ctrls1.wrQLenPdf::16                    78                       # What write queue length does an incoming req see
system.mem_ctrls1.wrQLenPdf::17                   130                       # What write queue length does an incoming req see
system.mem_ctrls1.wrQLenPdf::18                   146                       # What write queue length does an incoming req see
system.mem_ctrls1.wrQLenPdf::19                   147                       # What write queue length does an incoming req see
system.mem_ctrls1.wrQLenPdf::20                   149                       # What write queue length does an incoming req see
system.mem_ctrls1.wrQLenPdf::21                   150                       # What write queue length does an incoming req see
system.mem_ctrls1.wrQLenPdf::22                   149                       # What write queue length does an incoming req see
system.mem_ctrls1.wrQLenPdf::23                   148                       # What write queue length does an incoming req see
system.mem_ctrls1.wrQLenPdf::24                   153                       # What write queue length does an incoming req see
system.mem_ctrls1.wrQLenPdf::25                   148                       # What write queue length does an incoming req see
system.mem_ctrls1.wrQLenPdf::26                   147                       # What write queue length does an incoming req see
system.mem_ctrls1.wrQLenPdf::27                   147                       # What write queue length does an incoming req see
system.mem_ctrls1.wrQLenPdf::28                   150                       # What write queue length does an incoming req see
system.mem_ctrls1.wrQLenPdf::29                   151                       # What write queue length does an incoming req see
system.mem_ctrls1.wrQLenPdf::30                   150                       # What write queue length does an incoming req see
system.mem_ctrls1.wrQLenPdf::31                   146                       # What write queue length does an incoming req see
system.mem_ctrls1.wrQLenPdf::32                   146                       # What write queue length does an incoming req see
system.mem_ctrls1.wrQLenPdf::33                     2                       # What write queue length does an incoming req see
system.mem_ctrls1.wrQLenPdf::34                     0                       # What write queue length does an incoming req see
system.mem_ctrls1.wrQLenPdf::35                     0                       # What write queue length does an incoming req see
system.mem_ctrls1.wrQLenPdf::36                     0                       # What write queue length does an incoming req see
system.mem_ctrls1.wrQLenPdf::37                     0                       # What write queue length does an incoming req see
system.mem_ctrls1.wrQLenPdf::38                     0                       # What write queue length does an incoming req see
system.mem_ctrls1.wrQLenPdf::39                     0                       # What write queue length does an incoming req see
system.mem_ctrls1.wrQLenPdf::40                     0                       # What write queue length does an incoming req see
system.mem_ctrls1.wrQLenPdf::41                     0                       # What write queue length does an incoming req see
system.mem_ctrls1.wrQLenPdf::42                     0                       # What write queue length does an incoming req see
system.mem_ctrls1.wrQLenPdf::43                     0                       # What write queue length does an incoming req see
system.mem_ctrls1.wrQLenPdf::44                     0                       # What write queue length does an incoming req see
system.mem_ctrls1.wrQLenPdf::45                     0                       # What write queue length does an incoming req see
system.mem_ctrls1.wrQLenPdf::46                     0                       # What write queue length does an incoming req see
system.mem_ctrls1.wrQLenPdf::47                     0                       # What write queue length does an incoming req see
system.mem_ctrls1.wrQLenPdf::48                     0                       # What write queue length does an incoming req see
system.mem_ctrls1.wrQLenPdf::49                     0                       # What write queue length does an incoming req see
system.mem_ctrls1.wrQLenPdf::50                     0                       # What write queue length does an incoming req see
system.mem_ctrls1.wrQLenPdf::51                     0                       # What write queue length does an incoming req see
system.mem_ctrls1.wrQLenPdf::52                     0                       # What write queue length does an incoming req see
system.mem_ctrls1.wrQLenPdf::53                     0                       # What write queue length does an incoming req see
system.mem_ctrls1.wrQLenPdf::54                     0                       # What write queue length does an incoming req see
system.mem_ctrls1.wrQLenPdf::55                     0                       # What write queue length does an incoming req see
system.mem_ctrls1.wrQLenPdf::56                     0                       # What write queue length does an incoming req see
system.mem_ctrls1.wrQLenPdf::57                     0                       # What write queue length does an incoming req see
system.mem_ctrls1.wrQLenPdf::58                     0                       # What write queue length does an incoming req see
system.mem_ctrls1.wrQLenPdf::59                     0                       # What write queue length does an incoming req see
system.mem_ctrls1.wrQLenPdf::60                     0                       # What write queue length does an incoming req see
system.mem_ctrls1.wrQLenPdf::61                     0                       # What write queue length does an incoming req see
system.mem_ctrls1.wrQLenPdf::62                     0                       # What write queue length does an incoming req see
system.mem_ctrls1.wrQLenPdf::63                     0                       # What write queue length does an incoming req see
system.mem_ctrls1.bytesPerActivate::samples        24413                       # Bytes accessed per row activation
system.mem_ctrls1.bytesPerActivate::mean   129.090567                       # Bytes accessed per row activation
system.mem_ctrls1.bytesPerActivate::gmean   113.383041                       # Bytes accessed per row activation
system.mem_ctrls1.bytesPerActivate::stdev   111.403038                       # Bytes accessed per row activation
system.mem_ctrls1.bytesPerActivate::0-127         6085     24.93%     24.93% # Bytes accessed per row activation
system.mem_ctrls1.bytesPerActivate::128-255        17524     71.78%     96.71% # Bytes accessed per row activation
system.mem_ctrls1.bytesPerActivate::256-383          217      0.89%     97.60% # Bytes accessed per row activation
system.mem_ctrls1.bytesPerActivate::384-511          133      0.54%     98.14% # Bytes accessed per row activation
system.mem_ctrls1.bytesPerActivate::512-639           81      0.33%     98.47% # Bytes accessed per row activation
system.mem_ctrls1.bytesPerActivate::640-767           63      0.26%     98.73% # Bytes accessed per row activation
system.mem_ctrls1.bytesPerActivate::768-895           28      0.11%     98.84% # Bytes accessed per row activation
system.mem_ctrls1.bytesPerActivate::896-1023           54      0.22%     99.07% # Bytes accessed per row activation
system.mem_ctrls1.bytesPerActivate::1024-1151          228      0.93%    100.00% # Bytes accessed per row activation
system.mem_ctrls1.bytesPerActivate::total        24413                       # Bytes accessed per row activation
system.mem_ctrls1.rdPerTurnAround::samples          147                       # Reads before turning the bus around for writes
system.mem_ctrls1.rdPerTurnAround::mean    317.972789                       # Reads before turning the bus around for writes
system.mem_ctrls1.rdPerTurnAround::stdev  3197.266163                       # Reads before turning the bus around for writes
system.mem_ctrls1.rdPerTurnAround::0-2047          146     99.32%     99.32% # Reads before turning the bus around for writes
system.mem_ctrls1.rdPerTurnAround::36864-38911            1      0.68%    100.00% # Reads before turning the bus around for writes
system.mem_ctrls1.rdPerTurnAround::total          147                       # Reads before turning the bus around for writes
system.mem_ctrls1.wrPerTurnAround::samples          147                       # Writes before turning the bus around for reads
system.mem_ctrls1.wrPerTurnAround::mean     17.115646                       # Writes before turning the bus around for reads
system.mem_ctrls1.wrPerTurnAround::gmean    17.078636                       # Writes before turning the bus around for reads
system.mem_ctrls1.wrPerTurnAround::stdev     1.131837                       # Writes before turning the bus around for reads
system.mem_ctrls1.wrPerTurnAround::15               1      0.68%      0.68% # Writes before turning the bus around for reads
system.mem_ctrls1.wrPerTurnAround::16              69     46.94%     47.62% # Writes before turning the bus around for reads
system.mem_ctrls1.wrPerTurnAround::17               3      2.04%     49.66% # Writes before turning the bus around for reads
system.mem_ctrls1.wrPerTurnAround::18              60     40.82%     90.48% # Writes before turning the bus around for reads
system.mem_ctrls1.wrPerTurnAround::19              14      9.52%    100.00% # Writes before turning the bus around for reads
system.mem_ctrls1.wrPerTurnAround::total          147                       # Writes before turning the bus around for reads
system.mem_ctrls1.totQLat                  9306208994                       # Total ticks spent queuing
system.mem_ctrls1.totMemAccLat            10182621494                       # Total ticks spent from burst creation until serviced by the DRAM
system.mem_ctrls1.totBusLat                 233710000                       # Total ticks spent in databus transfers
system.mem_ctrls1.avgQLat                   199097.36                       # Average queueing delay per DRAM burst
system.mem_ctrls1.avgBusLat                   5000.00                       # Average bus latency per DRAM burst
system.mem_ctrls1.avgMemAccLat              217847.36                       # Average memory access latency per DRAM burst
system.mem_ctrls1.avgRdBW                        3.18                       # Average DRAM read bandwidth in MiByte/s
system.mem_ctrls1.avgWrBW                        0.17                       # Average achieved write bandwidth in MiByte/s
system.mem_ctrls1.avgRdBWSys                     3.19                       # Average system read bandwidth in MiByte/s
system.mem_ctrls1.avgWrBWSys                     0.17                       # Average system write bandwidth in MiByte/s
system.mem_ctrls1.peakBW                     12800.00                       # Theoretical peak bandwidth in MiByte/s
system.mem_ctrls1.busUtil                        0.03                       # Data bus utilization in percentage
system.mem_ctrls1.busUtilRead                    0.02                       # Data bus utilization in percentage for reads
system.mem_ctrls1.busUtilWrite                   0.00                       # Data bus utilization in percentage for writes
system.mem_ctrls1.avgRdQLen                      1.00                       # Average read queue length when enqueuing
system.mem_ctrls1.avgWrQLen                      8.43                       # Average write queue length when enqueuing
system.mem_ctrls1.readRowHits                   23466                       # Number of row buffer hits during reads
system.mem_ctrls1.writeRowHits                   1369                       # Number of row buffer hits during writes
system.mem_ctrls1.readRowHitRate                50.20                       # Row buffer hit rate for reads
system.mem_ctrls1.writeRowHitRate               53.92                       # Row buffer hit rate for writes
system.mem_ctrls1.avgGap                  19049746.41                       # Average gap between requests
system.mem_ctrls1.pageHitRate                   50.39                       # Row buffer hit rate, read and write combined
system.mem_ctrls1_0.actEnergy                91035000                       # Energy for activate commands per rank (pJ)
system.mem_ctrls1_0.preEnergy                48367275                       # Energy for precharge commands per rank (pJ)
system.mem_ctrls1_0.readEnergy              167083140                       # Energy for read commands per rank (pJ)
system.mem_ctrls1_0.writeEnergy               6624180                       # Energy for write commands per rank (pJ)
system.mem_ctrls1_0.refreshEnergy        15692988480.000004                       # Energy for refresh commands per rank (pJ)
system.mem_ctrls1_0.actBackEnergy          3382455810                       # Energy for active background per rank (pJ)
system.mem_ctrls1_0.preBackEnergy          1015434720                       # Energy for precharge background per rank (pJ)
system.mem_ctrls1_0.actPowerDownEnergy    30800171160                       # Energy for active power-down per rank (pJ)
system.mem_ctrls1_0.prePowerDownEnergy    24613561920                       # Energy for precharge power-down per rank (pJ)
system.mem_ctrls1_0.selfRefreshEnergy    196372886190                       # Energy for self refresh per rank (pJ)
system.mem_ctrls1_0.totalEnergy          272202981075                       # Total energy per rank (pJ)
system.mem_ctrls1_0.averagePower           289.029861                       # Core power per rank (mW)
system.mem_ctrls1_0.totalIdleTime        931692057448                       # Total Idle time Per DRAM Rank
system.mem_ctrls1_0.memoryStateTime::IDLE   2137942744                       # Time in different power states
system.mem_ctrls1_0.memoryStateTime::REF   6685960000                       # Time in different power states
system.mem_ctrls1_0.memoryStateTime::SREF 800049701945                       # Time in different power states
system.mem_ctrls1_0.memoryStateTime::PRE_PDN  64098072157                       # Time in different power states
system.mem_ctrls1_0.memoryStateTime::ACT   1265545578                       # Time in different power states
system.mem_ctrls1_0.memoryStateTime::ACT_PDN  67544283346                       # Time in different power states
system.mem_ctrls1_1.actEnergy                83345220                       # Energy for activate commands per rank (pJ)
system.mem_ctrls1_1.preEnergy                44280060                       # Energy for precharge commands per rank (pJ)
system.mem_ctrls1_1.readEnergy              166654740                       # Energy for read commands per rank (pJ)
system.mem_ctrls1_1.writeEnergy               6509340                       # Energy for write commands per rank (pJ)
system.mem_ctrls1_1.refreshEnergy        16824540720.000004                       # Energy for refresh commands per rank (pJ)
system.mem_ctrls1_1.actBackEnergy          3558003840                       # Energy for active background per rank (pJ)
system.mem_ctrls1_1.preBackEnergy          1111862400                       # Energy for precharge background per rank (pJ)
system.mem_ctrls1_1.actPowerDownEnergy    32100036780                       # Energy for active power-down per rank (pJ)
system.mem_ctrls1_1.prePowerDownEnergy    26646399840                       # Energy for precharge power-down per rank (pJ)
system.mem_ctrls1_1.selfRefreshEnergy    194688254775                       # Energy for self refresh per rank (pJ)
system.mem_ctrls1_1.totalEnergy          275242183245                       # Total energy per rank (pJ)
system.mem_ctrls1_1.averagePower           292.256940                       # Core power per rank (mW)
system.mem_ctrls1_1.totalIdleTime        931055503467                       # Total Idle time Per DRAM Rank
system.mem_ctrls1_1.memoryStateTime::IDLE   2352798529                       # Time in different power states
system.mem_ctrls1_1.memoryStateTime::REF   7169252000                       # Time in different power states
system.mem_ctrls1_1.memoryStateTime::SREF 791269363851                       # Time in different power states
system.mem_ctrls1_1.memoryStateTime::PRE_PDN  69391465864                       # Time in different power states
system.mem_ctrls1_1.memoryStateTime::ACT   1203951774                       # Time in different power states
system.mem_ctrls1_1.memoryStateTime::ACT_PDN  70394673752                       # Time in different power states
system.pwrStateResidencyTicks::UNDEFINED 310789663390179                       # Cumulative time (in ticks) in various power states
system.cpu.branchPred.lookups                       1                       # Number of BP lookups
system.cpu.branchPred.condPredicted                 0                       # Number of conditional branches predicted
system.cpu.branchPred.condIncorrect                 1                       # Number of conditional branches incorrect
system.cpu.branchPred.BTBLookups                    0                       # Number of BTB lookups
system.cpu.branchPred.BTBHits                       0                       # Number of BTB hits
system.cpu.branchPred.BTBCorrect                    0                       # Number of correct BTB predictions (this stat may not work properly.
system.cpu.branchPred.BTBHitPct                   nan                       # BTB Hit Percentage
system.cpu.branchPred.usedRAS                       1                       # Number of times the RAS was used to get a target.
system.cpu.branchPred.RASInCorrect                  1                       # Number of incorrect RAS predictions.
system.cpu.branchPred.indirectLookups               0                       # Number of indirect predictor lookups.
system.cpu.branchPred.indirectHits                  0                       # Number of indirect target hits.
system.cpu.branchPred.indirectMisses                0                       # Number of indirect misses.
system.cpu.branchPredindirectMispredicted            0                       # Number of mispredicted indirect branches.
system.cpu_voltage_domain.voltage                   1                       # Voltage in Volts
system.cpu_clk_domain.clock                       333                       # Clock period in ticks
system.cpu.dtb.fetch_hits                           0                       # ITB hits
system.cpu.dtb.fetch_misses                         0                       # ITB misses
system.cpu.dtb.fetch_acv                            0                       # ITB acv
system.cpu.dtb.fetch_accesses                       0                       # ITB accesses
system.cpu.dtb.read_hits                            0                       # DTB read hits
system.cpu.dtb.read_misses                          0                       # DTB read misses
system.cpu.dtb.read_acv                             0                       # DTB read access violations
system.cpu.dtb.read_accesses                        0                       # DTB read accesses
system.cpu.dtb.write_hits                           0                       # DTB write hits
system.cpu.dtb.write_misses                         0                       # DTB write misses
system.cpu.dtb.write_acv                            0                       # DTB write access violations
system.cpu.dtb.write_accesses                       0                       # DTB write accesses
system.cpu.dtb.data_hits                            0                       # DTB hits
system.cpu.dtb.data_misses                          0                       # DTB misses
system.cpu.dtb.data_acv                             0                       # DTB access violations
system.cpu.dtb.data_accesses                        0                       # DTB accesses
system.cpu.itb.fetch_hits                           4                       # ITB hits
system.cpu.itb.fetch_misses                         1                       # ITB misses
system.cpu.itb.fetch_acv                            0                       # ITB acv
system.cpu.itb.fetch_accesses                       5                       # ITB accesses
system.cpu.itb.read_hits                            0                       # DTB read hits
system.cpu.itb.read_misses                          0                       # DTB read misses
system.cpu.itb.read_acv                             0                       # DTB read access violations
system.cpu.itb.read_accesses                        0                       # DTB read accesses
system.cpu.itb.write_hits                           0                       # DTB write hits
system.cpu.itb.write_misses                         0                       # DTB write misses
system.cpu.itb.write_acv                            0                       # DTB write access violations
system.cpu.itb.write_accesses                       0                       # DTB write accesses
system.cpu.itb.data_hits                            0                       # DTB hits
system.cpu.itb.data_misses                          0                       # DTB misses
system.cpu.itb.data_acv                             0                       # DTB access violations
system.cpu.itb.data_accesses                        0                       # DTB accesses
system.cpu.workload.num_syscalls                    0                       # Number of system calls
system.cpu.pwrStateResidencyTicks::ON    941781505770                       # Cumulative time (in ticks) in various power states
system.cpu.numCycles                              732                       # number of cpu cycles simulated
system.cpu.numWorkItemsStarted                      0                       # number of work items this cpu started
system.cpu.numWorkItemsCompleted                    0                       # number of work items this cpu completed
system.cpu.fetch.icacheStallCycles                 27                       # Number of cycles fetch is stalled on an Icache miss
system.cpu.fetch.Insts                              7                       # Number of instructions fetch has processed
system.cpu.fetch.Branches                           1                       # Number of branches that fetch encountered
system.cpu.fetch.predictedBranches                  1                       # Number of branches that fetch has predicted taken
system.cpu.fetch.Cycles                             2                       # Number of cycles fetch has run and was not squashing or blocked
system.cpu.fetch.SquashCycles                       5                       # Number of cycles fetch has spent squashing
system.cpu.fetch.PendingDrainCycles                 3                       # Number of cycles fetch has spent waiting on pipes to drain
system.cpu.fetch.PendingTrapStallCycles             6                       # Number of stall cycles due to pending traps
system.cpu.fetch.CacheLines                         4                       # Number of cache lines fetched
system.cpu.fetch.IcacheSquashes                     2                       # Number of outstanding Icache misses that were squashed
system.cpu.fetch.rateDist::samples                 40                       # Number of instructions fetched each cycle (Total)
system.cpu.fetch.rateDist::mean              0.175000                       # Number of instructions fetched each cycle (Total)
system.cpu.fetch.rateDist::stdev             0.957762                       # Number of instructions fetched each cycle (Total)
system.cpu.fetch.rateDist::underflows               0      0.00%      0.00% # Number of instructions fetched each cycle (Total)
system.cpu.fetch.rateDist::0                       38     95.00%     95.00% # Number of instructions fetched each cycle (Total)
system.cpu.fetch.rateDist::1                        1      2.50%     97.50% # Number of instructions fetched each cycle (Total)
system.cpu.fetch.rateDist::2                        0      0.00%     97.50% # Number of instructions fetched each cycle (Total)
system.cpu.fetch.rateDist::3                        0      0.00%     97.50% # Number of instructions fetched each cycle (Total)
system.cpu.fetch.rateDist::4                        0      0.00%     97.50% # Number of instructions fetched each cycle (Total)
system.cpu.fetch.rateDist::5                        0      0.00%     97.50% # Number of instructions fetched each cycle (Total)
system.cpu.fetch.rateDist::6                        1      2.50%    100.00% # Number of instructions fetched each cycle (Total)
system.cpu.fetch.rateDist::7                        0      0.00%    100.00% # Number of instructions fetched each cycle (Total)
system.cpu.fetch.rateDist::8                        0      0.00%    100.00% # Number of instructions fetched each cycle (Total)
system.cpu.fetch.rateDist::overflows                0      0.00%    100.00% # Number of instructions fetched each cycle (Total)
system.cpu.fetch.rateDist::min_value                0                       # Number of instructions fetched each cycle (Total)
system.cpu.fetch.rateDist::max_value                6                       # Number of instructions fetched each cycle (Total)
system.cpu.fetch.rateDist::total                   40                       # Number of instructions fetched each cycle (Total)
system.cpu.fetch.branchRate                  0.001366                       # Number of branch fetches per cycle
system.cpu.fetch.rate                        0.009563                       # Number of inst fetches per cycle
system.cpu.decode.IdleCycles                       35                       # Number of cycles decode is idle
system.cpu.decode.RunCycles                         2                       # Number of cycles decode is running
system.cpu.decode.SquashCycles                      3                       # Number of cycles decode is squashing
[...]
system.switch_cpus_1.iq.int_inst_queue_writes     89982377                       # Number of integer instruction queue writes
system.switch_cpus_1.iq.int_inst_queue_wakeup_accesses     83858592                       # Number of integer instruction queue wakeup accesses
system.switch_cpus_1.iq.fp_inst_queue_reads    266250435                       # Number of floating instruction queue reads
system.switch_cpus_1.iq.fp_inst_queue_writes    142601165                       # Number of floating instruction queue writes
system.switch_cpus_1.iq.fp_inst_queue_wakeup_accesses    125849453                       # Number of floating instruction queue wakeup accesses
system.switch_cpus_1.iq.int_alu_accesses     84878473                       # Number of integer alu accesses
system.switch_cpus_1.iq.fp_alu_accesses     135560037                       # Number of floating point alu accesses
system.switch_cpus_1.iew.lsq.thread0.forwLoads      4086282                       # Number of loads that had data forwarded from stores
system.switch_cpus_1.iew.lsq.thread0.invAddrLoads            0                       # Number of loads ignored due to an invalid address
system.switch_cpus_1.iew.lsq.thread0.squashedLoads      3355547                       # Number of loads squashed
system.switch_cpus_1.iew.lsq.thread0.ignoredResponses         4385                       # Number of memory responses ignored because the instruction is squashed
system.switch_cpus_1.iew.lsq.thread0.memOrderViolation         5858                       # Number of memory ordering violations
system.switch_cpus_1.iew.lsq.thread0.squashedStores       564812                       # Number of stores squashed
system.switch_cpus_1.iew.lsq.thread0.invAddrSwpfs            0                       # Number of software prefetches ignored due to an invalid address
system.switch_cpus_1.iew.lsq.thread0.blockedLoads            0                       # Number of blocked loads due to partial load-store forwarding
system.switch_cpus_1.iew.lsq.thread0.rescheduledLoads            3                       # Number of loads that were rescheduled
system.switch_cpus_1.iew.lsq.thread0.cacheBlocked      5083859                       # Number of times an access to memory failed due to the cache being blocked
system.switch_cpus_1.iew.iewIdleCycles              0                       # Number of cycles IEW is idle
system.switch_cpus_1.iew.iewSquashCycles       223331                       # Number of cycles IEW is squashing
system.switch_cpus_1.iew.iewBlockCycles       6891982                       # Number of cycles IEW is blocking
system.switch_cpus_1.iew.iewUnblockCycles      2634853                       # Number of cycles IEW is unblocking
system.switch_cpus_1.iew.iewDispatchedInsts    222336821                       # Number of instructions dispatched to IQ
system.switch_cpus_1.iew.iewDispSquashedInsts         2139                       # Number of squashed instructions skipped by dispatch
system.switch_cpus_1.iew.iewDispLoadInsts     33527366                       # Number of dispatched load instructions
system.switch_cpus_1.iew.iewDispStoreInsts     13371604                       # Number of dispatched store instructions
system.switch_cpus_1.iew.iewDispNonSpecInsts          887                       # Number of dispatched non-speculative instructions
system.switch_cpus_1.iew.iewIQFullEvents       947025                       # Number of times the IQ has become full, causing a stall
system.switch_cpus_1.iew.iewLSQFullEvents      1448385                       # Number of times the LSQ has become full, causing a stall
system.switch_cpus_1.iew.memOrderViolationEvents         5858                       # Number of memory order violations
system.switch_cpus_1.iew.predictedTakenIncorrect       117515                       # Number of branches that were predicted taken incorrectly
system.switch_cpus_1.iew.predictedNotTakenIncorrect       103562                       # Number of branches that were predicted not taken incorrectly
system.switch_cpus_1.iew.branchMispredicts       221077                       # Number of branch mispredicts detected at execute
system.switch_cpus_1.iew.iewExecutedInsts    214525807                       # Number of executed instructions
system.switch_cpus_1.iew.iewExecLoadInsts     37335427                       # Number of load instructions executed
system.switch_cpus_1.iew.iewExecSquashedInsts       265899                       # Number of squashed instructions skipped in execute
system.switch_cpus_1.iew.exec_swp                   0                       # number of swp insts executed
system.switch_cpus_1.iew.exec_nop             6047922                       # number of nop insts executed
system.switch_cpus_1.iew.exec_refs           50387767                       # number of memory reference insts executed
system.switch_cpus_1.iew.exec_branches       17894397                       # Number of branches executed
system.switch_cpus_1.iew.exec_stores         13052340                       # Number of stores executed
system.switch_cpus_1.iew.exec_rate           1.973168                       # Inst execution rate
system.switch_cpus_1.iew.wb_sent            209833250                       # cumulative count of insts sent to commit
system.switch_cpus_1.iew.wb_count           209708045                       # cumulative count of insts written-back
system.switch_cpus_1.iew.wb_producers       157472342                       # num instructions producing a value
system.switch_cpus_1.iew.wb_consumers       226960503                       # num instructions consuming a value
system.switch_cpus_1.iew.wb_rate             1.928855                       # insts written-back per cycle
system.switch_cpus_1.iew.wb_fanout           0.693831                       # average fanout of values written-back
system.switch_cpus_1.commit.commitSquashedInsts     16715244                       # The number of squashed insts skipped by commit
system.switch_cpus_1.commit.commitNonSpecStalls         1060                       # The number of times commit has been forced to stall to communicate backwards
system.switch_cpus_1.commit.branchMispredicts       212645                       # The number of times a branch was mispredicted
system.switch_cpus_1.commit.committed_per_cycle::samples    106397134                       # Number of insts commited each cycle
system.switch_cpus_1.commit.committed_per_cycle::mean     1.932268                       # Number of insts commited each cycle
system.switch_cpus_1.commit.committed_per_cycle::stdev     2.929413                       # Number of insts commited each cycle
system.switch_cpus_1.commit.committed_per_cycle::underflows            0      0.00%      0.00% # Number of insts commited each cycle
system.switch_cpus_1.commit.committed_per_cycle::0     54004099     50.76%     50.76% # Number of insts commited each cycle
system.switch_cpus_1.commit.committed_per_cycle::1     22017899     20.69%     71.45% # Number of insts commited each cycle
system.switch_cpus_1.commit.committed_per_cycle::2      4734751      4.45%     75.90% # Number of insts commited each cycle
system.switch_cpus_1.commit.committed_per_cycle::3      2909839      2.73%     78.64% # Number of insts commited each cycle
system.switch_cpus_1.commit.committed_per_cycle::4      2141858      2.01%     80.65% # Number of insts commited each cycle
system.switch_cpus_1.commit.committed_per_cycle::5       910373      0.86%     81.50% # Number of insts commited each cycle
system.switch_cpus_1.commit.committed_per_cycle::6      2165557      2.04%     83.54% # Number of insts commited each cycle
system.switch_cpus_1.commit.committed_per_cycle::7       843843      0.79%     84.33% # Number of insts commited each cycle
system.switch_cpus_1.commit.committed_per_cycle::8     16668915     15.67%    100.00% # Number of insts commited each cycle
system.switch_cpus_1.commit.committed_per_cycle::overflows            0      0.00%    100.00% # Number of insts commited each cycle
system.switch_cpus_1.commit.committed_per_cycle::min_value            0                       # Number of insts commited each cycle
system.switch_cpus_1.commit.committed_per_cycle::max_value            8                       # Number of insts commited each cycle
system.switch_cpus_1.commit.committed_per_cycle::total    106397134                       # Number of insts commited each cycle
system.switch_cpus_1.commit.committedInsts    205587778                       # Number of instructions committed
system.switch_cpus_1.commit.committedOps    205587778                       # Number of ops (including micro ops) committed
system.switch_cpus_1.commit.swp_count               0                       # Number of s/w prefetches committed
system.switch_cpus_1.commit.refs             42978589                       # Number of memory references committed
system.switch_cpus_1.commit.loads            30171801                       # Number of loads committed
system.switch_cpus_1.commit.membars               530                       # Number of memory barriers committed
system.switch_cpus_1.commit.branches         16841234                       # Number of branches committed
system.switch_cpus_1.commit.fp_insts        121009933                       # Number of committed floating point instructions.
system.switch_cpus_1.commit.int_insts       111742899                       # Number of committed integer instructions.
system.switch_cpus_1.commit.function_calls      1810278                       # Number of function calls committed.
system.switch_cpus_1.commit.op_class_0::No_OpClass      5587774      2.72%      2.72% # Class of committed instruction
system.switch_cpus_1.commit.op_class_0::IntAlu     66796729     32.49%     35.21% # Class of committed instruction
system.switch_cpus_1.commit.op_class_0::IntMult       802505      0.39%     35.60% # Class of committed instruction
system.switch_cpus_1.commit.op_class_0::IntDiv            0      0.00%     35.60% # Class of committed instruction
system.switch_cpus_1.commit.op_class_0::FloatAdd     57123504     27.79%     63.38% # Class of committed instruction
system.switch_cpus_1.commit.op_class_0::FloatCmp      4994353      2.43%     65.81% # Class of committed instruction
system.switch_cpus_1.commit.op_class_0::FloatCvt      3095320      1.51%     67.32% # Class of committed instruction
system.switch_cpus_1.commit.op_class_0::FloatMult     24208317     11.78%     79.09% # Class of committed instruction
system.switch_cpus_1.commit.op_class_0::FloatMultAcc            0      0.00%     79.09% # Class of committed instruction
system.switch_cpus_1.commit.op_class_0::FloatDiv          116      0.00%     79.09% # Class of committed instruction
system.switch_cpus_1.commit.op_class_0::FloatMisc            0      0.00%     79.09% # Class of committed instruction
system.switch_cpus_1.commit.op_class_0::FloatSqrt           41      0.00%     79.09% # Class of committed instruction
system.switch_cpus_1.commit.op_class_0::SimdAdd            0      0.00%     79.09% # Class of committed instruction
system.switch_cpus_1.commit.op_class_0::SimdAddAcc            0      0.00%     79.09% # Class of committed instruction
system.switch_cpus_1.commit.op_class_0::SimdAlu            0      0.00%     79.09% # Class of committed instruction
system.switch_cpus_1.commit.op_class_0::SimdCmp            0      0.00%     79.09% # Class of committed instruction
system.switch_cpus_1.commit.op_class_0::SimdCvt            0      0.00%     79.09% # Class of committed instruction
system.switch_cpus_1.commit.op_class_0::SimdMisc            0      0.00%     79.09% # Class of committed instruction
system.switch_cpus_1.commit.op_class_0::SimdMult            0      0.00%     79.09% # Class of committed instruction
system.switch_cpus_1.commit.op_class_0::SimdMultAcc            0      0.00%     79.09% # Class of committed instruction
system.switch_cpus_1.commit.op_class_0::SimdShift            0      0.00%     79.09% # Class of committed instruction
system.switch_cpus_1.commit.op_class_0::SimdShiftAcc            0      0.00%     79.09% # Class of committed instruction
system.switch_cpus_1.commit.op_class_0::SimdSqrt            0      0.00%     79.09% # Class of committed instruction
system.switch_cpus_1.commit.op_class_0::SimdFloatAdd            0      0.00%     79.09% # Class of committed instruction
system.switch_cpus_1.commit.op_class_0::SimdFloatAlu            0      0.00%     79.09% # Class of committed instruction
system.switch_cpus_1.commit.op_class_0::SimdFloatCmp            0      0.00%     79.09% # Class of committed instruction
system.switch_cpus_1.commit.op_class_0::SimdFloatCvt            0      0.00%     79.09% # Class of committed instruction
system.switch_cpus_1.commit.op_class_0::SimdFloatDiv            0      0.00%     79.09% # Class of committed instruction
system.switch_cpus_1.commit.op_class_0::SimdFloatMisc            0      0.00%     79.09% # Class of committed instruction
system.switch_cpus_1.commit.op_class_0::SimdFloatMult            0      0.00%     79.09% # Class of committed instruction
system.switch_cpus_1.commit.op_class_0::SimdFloatMultAcc            0      0.00%     79.09% # Class of committed instruction
system.switch_cpus_1.commit.op_class_0::SimdFloatSqrt            0      0.00%     79.09% # Class of committed instruction
system.switch_cpus_1.commit.op_class_0::MemRead      6947129      3.38%     82.47% # Class of committed instruction
system.switch_cpus_1.commit.op_class_0::MemWrite      4443708      2.16%     84.64% # Class of committed instruction
system.switch_cpus_1.commit.op_class_0::FloatMemRead     23225202     11.30%     95.93% # Class of committed instruction
system.switch_cpus_1.commit.op_class_0::FloatMemWrite      8363080      4.07%    100.00% # Class of committed instruction
system.switch_cpus_1.commit.op_class_0::IprAccess            0      0.00%    100.00% # Class of committed instruction
system.switch_cpus_1.commit.op_class_0::InstPrefetch            0      0.00%    100.00% # Class of committed instruction
system.switch_cpus_1.commit.op_class_0::total    205587778                       # Class of committed instruction
system.switch_cpus_1.commit.bw_lim_events     16668915                       # number cycles where commit BW limit reached
system.switch_cpus_1.rob.rob_reads          311963875                       # The number of ROB reads
system.switch_cpus_1.rob.rob_writes         446853581                       # The number of ROB writes
system.switch_cpus_1.timesIdled                  1468                       # Number of times that the entire CPU went into an idle state and unscheduled itself
system.switch_cpus_1.idleCycles                 92592                       # Total number of cycles that the CPU has spent unscheduled due to idling
system.switch_cpus_1.committedInsts         200000004                       # Number of Instructions Simulated
system.switch_cpus_1.committedOps           200000004                       # Number of Ops (including micro ops) Simulated
system.switch_cpus_1.cpi                     0.543608                       # CPI: Cycles Per Instruction
system.switch_cpus_1.cpi_total               0.543608                       # CPI: Total CPI of All Threads
system.switch_cpus_1.ipc                     1.839562                       # IPC: Instructions Per Cycle
system.switch_cpus_1.ipc_total               1.839562                       # IPC: Total IPC of All Threads
system.switch_cpus_1.int_regfile_reads      143498203                       # number of integer regfile reads
system.switch_cpus_1.int_regfile_writes      69461157                       # number of integer regfile writes
system.switch_cpus_1.fp_regfile_reads       186931649                       # number of floating regfile reads
system.switch_cpus_1.fp_regfile_writes      111295252                       # number of floating regfile writes
system.switch_cpus_1.misc_regfile_reads      56350682                       # number of misc regfile reads
system.switch_cpus_1.misc_regfile_writes         1060                       # number of misc regfile writes
system.tol3bus.snoop_filter.tot_requests      6318529                       # Total number of requests made to the snoop filter.
system.tol3bus.snoop_filter.hit_single_requests      3157045                       # Number of requests hitting in the snoop filter with a single holder of the requested data.
system.tol3bus.snoop_filter.hit_multi_requests            0                       # Number of requests hitting in the snoop filter with multiple (>1) holders of the requested data.
system.tol3bus.snoop_filter.tot_snoops            178                       # Total number of snoops made to the snoop filter.
system.tol3bus.snoop_filter.hit_single_snoops          178                       # Number of snoops hitting in the snoop filter with a single holder of the requested data.
system.tol3bus.snoop_filter.hit_multi_snoops            0                       # Number of snoops hitting in the snoop filter with multiple (>1) holders of the requested data.
system.tol3bus.pwrStateResidencyTicks::UNDEFINED 310789663390179                       # Cumulative time (in ticks) in various power states
system.tol3bus.trans_dist::ReadResp           2177070                       # Transaction distribution
system.tol3bus.trans_dist::WritebackDirty      2354742                       # Transaction distribution
system.tol3bus.trans_dist::CleanEvict          828659                       # Transaction distribution
system.tol3bus.trans_dist::ReadExReq           984414                       # Transaction distribution
system.tol3bus.trans_dist::ReadExResp          984414                       # Transaction distribution
system.tol3bus.trans_dist::ReadSharedReq      2177070                       # Transaction distribution
system.tol3bus.pkt_count_system.cpu.l2.mem_side::system.l3.cpu_side      9480013                       # Packet count per connected master and slave (bytes)
system.tol3bus.pkt_size_system.cpu.l2.mem_side::system.l3.cpu_side    352715392                       # Cumulative packet size per connected master and slave (bytes)
system.tol3bus.snoops                           26356                       # Total snoops (count)
system.tol3bus.snoopTraffic                    323072                       # Total snoop traffic (bytes)
system.tol3bus.snoop_fanout::samples          3187840                       # Request fanout histogram
system.tol3bus.snoop_fanout::mean            0.000056                       # Request fanout histogram
system.tol3bus.snoop_fanout::stdev           0.007472                       # Request fanout histogram
system.tol3bus.snoop_fanout::underflows             0      0.00%      0.00% # Request fanout histogram
system.tol3bus.snoop_fanout::0                3187662     99.99%     99.99% # Request fanout histogram
system.tol3bus.snoop_fanout::1                    178      0.01%    100.00% # Request fanout histogram
system.tol3bus.snoop_fanout::overflows              0      0.00%    100.00% # Request fanout histogram
system.tol3bus.snoop_fanout::min_value              0                       # Request fanout histogram
system.tol3bus.snoop_fanout::max_value              1                       # Request fanout histogram
system.tol3bus.snoop_fanout::total            3187840                       # Request fanout histogram
system.tol3bus.reqLayer0.occupancy         2886518259                       # Layer occupancy (ticks)
system.tol3bus.reqLayer0.utilization              0.3                       # Layer utilization (%)
system.tol3bus.respLayer0.occupancy        2105548344                       # Layer occupancy (ticks)
system.tol3bus.respLayer0.utilization             0.2                       # Layer utilization (%)

---------- End Simulation Statistics   ----------
