
---------- Begin Simulation Statistics ----------
sim_seconds                                  2.462261                       # Number of seconds simulated
sim_ticks                                2462261422185                       # Number of ticks simulated
final_tick                               72492234003531                       # Number of ticks from beginning of simulation (restored from checkpoints and never reset)
sim_freq                                 1000000000000                       # Frequency of simulated ticks
host_inst_rate                                 223473                       # Simulator instruction rate (inst/s)
host_op_rate                                   223473                       # Simulator op (including micro ops) rate (op/s)
host_tick_rate                              458540478                       # Simulator tick rate (ticks/s)
host_mem_usage                                2503420                       # Number of bytes of host memory used
host_seconds                                  5369.78                       # Real time elapsed on the host
sim_insts                                  1200000011                       # Number of instructions simulated
sim_ops                                    1200000011                       # Number of ops (including micro ops) simulated
system.voltage_domain.voltage                       1                       # Voltage in Volts
system.clk_domain.clock                          1000                       # Clock period in ticks
system.mem_ctrls0.pwrStateResidencyTicks::UNDEFINED 72492234003531                       # Cumulative time (in ticks) in various power states
system.mem_ctrls0.bytes_read::cpu.inst             64                       # Number of bytes read from this memory
system.mem_ctrls0.bytes_read::cpu.data            128                       # Number of bytes read from this memory
system.mem_ctrls0.bytes_read::switch_cpus.inst       150528                       # Number of bytes read from this memory
system.mem_ctrls0.bytes_read::switch_cpus.data    398841792                       # Number of bytes read from this memory
system.mem_ctrls0.bytes_read::switch_cpus_1.inst        44544                       # Number of bytes read from this memory
system.mem_ctrls0.bytes_read::switch_cpus_1.data     82313344                       # Number of bytes read from this memory
system.mem_ctrls0.bytes_read::total         481350400                       # Number of bytes read from this memory
system.mem_ctrls0.bytes_inst_read::cpu.inst           64                       # Number of instructions bytes read from this memory
system.mem_ctrls0.bytes_inst_read::switch_cpus.inst       150528                       # Number of instructions bytes read from this memory
system.mem_ctrls0.bytes_inst_read::switch_cpus_1.inst        44544                       # Number of instructions bytes read from this memory
system.mem_ctrls0.bytes_inst_read::total       195136                       # Number of instructions bytes read from this memory
system.mem_ctrls0.bytes_written::writebacks    157522048                       # Number of bytes written to this memory
system.mem_ctrls0.bytes_written::total      157522048                       # Number of bytes written to this memory
system.mem_ctrls0.num_reads::cpu.inst               1                       # Number of read requests responded to by this memory
system.mem_ctrls0.num_reads::cpu.data               2                       # Number of read requests responded to by this memory
system.mem_ctrls0.num_reads::switch_cpus.inst         2352                       # Number of read requests responded to by this memory
system.mem_ctrls0.num_reads::switch_cpus.data      6231903                       # Number of read requests responded to by this memory
system.mem_ctrls0.num_reads::switch_cpus_1.inst          696                       # Number of read requests responded to by this memory
system.mem_ctrls0.num_reads::switch_cpus_1.data      1286146                       # Number of read requests responded to by this memory
system.mem_ctrls0.num_reads::total            7521100                       # Number of read requests responded to by this memory
system.mem_ctrls0.num_writes::writebacks      2461282                       # Number of write requests responded to by this memory
system.mem_ctrls0.num_writes::total           2461282                       # Number of write requests responded to by this memory
system.mem_ctrls0.bw_read::cpu.inst                26                       # Total read bandwidth from this memory (bytes/s)
system.mem_ctrls0.bw_read::cpu.data                52                       # Total read bandwidth from this memory (bytes/s)
system.mem_ctrls0.bw_read::switch_cpus.inst        61134                       # Total read bandwidth from this memory (bytes/s)
system.mem_ctrls0.bw_read::switch_cpus.data    161981903                       # Total read bandwidth from this memory (bytes/s)
system.mem_ctrls0.bw_read::switch_cpus_1.inst        18091                       # Total read bandwidth from this memory (bytes/s)
system.mem_ctrls0.bw_read::switch_cpus_1.data     33429978                       # Total read bandwidth from this memory (bytes/s)
system.mem_ctrls0.bw_read::total            195491184                       # Total read bandwidth from this memory (bytes/s)
system.mem_ctrls0.bw_inst_read::cpu.inst           26                       # Instruction read bandwidth from this memory (bytes/s)
system.mem_ctrls0.bw_inst_read::switch_cpus.inst        61134                       # Instruction read bandwidth from this memory (bytes/s)
system.mem_ctrls0.bw_inst_read::switch_cpus_1.inst        18091                       # Instruction read bandwidth from this memory (bytes/s)
system.mem_ctrls0.bw_inst_read::total           79251                       # Instruction read bandwidth from this memory (bytes/s)
system.mem_ctrls0.bw_write::writebacks       63974543                       # Write bandwidth from this memory (bytes/s)
system.mem_ctrls0.bw_write::total            63974543                       # Write bandwidth from this memory (bytes/s)
system.mem_ctrls0.bw_total::writebacks       63974543                       # Total bandwidth to/from this memory (bytes/s)
system.mem_ctrls0.bw_total::cpu.inst               26                       # Total bandwidth to/from this memory (bytes/s)
system.mem_ctrls0.bw_total::cpu.data               52                       # Total bandwidth to/from this memory (bytes/s)
system.mem_ctrls0.bw_total::switch_cpus.inst        61134                       # Total bandwidth to/from this memory (bytes/s)
system.mem_ctrls0.bw_total::switch_cpus.data    161981903                       # Total bandwidth to/from this memory (bytes/s)
system.mem_ctrls0.bw_total::switch_cpus_1.inst        18091                       # Total bandwidth to/from this memory (bytes/s)
system.mem_ctrls0.bw_total::switch_cpus_1.data     33429978                       # Total bandwidth to/from this memory (bytes/s)
system.mem_ctrls0.bw_total::total           259465726                       # Total bandwidth to/from this memory (bytes/s)
system.mem_ctrls0.readReqs                    7521100                       # Number of read requests accepted
system.mem_ctrls0.writeReqs                   2461282                       # Number of write requests accepted
system.mem_ctrls0.readBursts                  7521100                       # Number of DRAM read bursts, including those serviced by the write queue
system.mem_ctrls0.writeBursts                 2461282                       # Number of DRAM write bursts, including those merged in the write queue
system.mem_ctrls0.bytesReadDRAM             480963392                       # Total number of bytes read from DRAM
system.mem_ctrls0.bytesReadWrQ                 387008                       # Total number of bytes read from write queue
system.mem_ctrls0.bytesWritten              157520640                       # Total number of bytes written to DRAM
system.mem_ctrls0.bytesReadSys              481350400                       # Total read bytes from the system interface side
system.mem_ctrls0.bytesWrittenSys           157522048                       # Total written bytes from the system interface side
system.mem_ctrls0.servicedByWrQ                  6047                       # Number of DRAM read bursts serviced by the write queue
system.mem_ctrls0.mergedWrBursts                    0                       # Number of DRAM write bursts merged with an existing one
system.mem_ctrls0.neitherReadNorWriteReqs            0                       # Number of requests that are neither read nor write
system.mem_ctrls0.perBankRdBursts::0           505747                       # Per bank write bursts
system.mem_ctrls0.perBankRdBursts::1           477082                       # Per bank write bursts
system.mem_ctrls0.perBankRdBursts::2           466297                       # Per bank write bursts
system.mem_ctrls0.perBankRdBursts::3           470800                       # Per bank write bursts
system.mem_ctrls0.perBankRdBursts::4           465638                       # Per bank write bursts
system.mem_ctrls0.perBankRdBursts::5           479600                       # Per bank write bursts
system.mem_ctrls0.perBankRdBursts::6           456144                       # Per bank write bursts
system.mem_ctrls0.perBankRdBursts::7           465644                       # Per bank write bursts
system.mem_ctrls0.perBankRdBursts::8           473938                       # Per bank write bursts
system.mem_ctrls0.perBankRdBursts::9           468967                       # Per bank write bursts
system.mem_ctrls0.perBankRdBursts::10          459435                       # Per bank write bursts
system.mem_ctrls0.perBankRdBursts::11          468170                       # Per bank write bursts
system.mem_ctrls0.perBankRdBursts::12          460322                       # Per bank write bursts
system.mem_ctrls0.perBankRdBursts::13          459763                       # Per bank write bursts
system.mem_ctrls0.perBankRdBursts::14          463622                       # Per bank write bursts
system.mem_ctrls0.perBankRdBursts::15          473884                       # Per bank write bursts
system.mem_ctrls0.perBankWrBursts::0           164583                       # Per bank write bursts
system.mem_ctrls0.perBankWrBursts::1           151998                       # Per bank write bursts
system.mem_ctrls0.perBankWrBursts::2           155300                       # Per bank write bursts
system.mem_ctrls0.perBankWrBursts::3           155154                       # Per bank write bursts
system.mem_ctrls0.perBankWrBursts::4           152962                       # Per bank write bursts
system.mem_ctrls0.perBankWrBursts::5           155249                       # Per bank write bursts
system.mem_ctrls0.perBankWrBursts::6           149046                       # Per bank write bursts
system.mem_ctrls0.perBankWrBursts::7           151118                       # Per bank write bursts
system.mem_ctrls0.perBankWrBursts::8           151347                       # Per bank write bursts
system.mem_ctrls0.perBankWrBursts::9           151373                       # Per bank write bursts
system.mem_ctrls0.perBankWrBursts::10          149813                       # Per bank write bursts
system.mem_ctrls0.perBankWrBursts::11          149187                       # Per bank write bursts
system.mem_ctrls0.perBankWrBursts::12          148810                       # Per bank write bursts
system.mem_ctrls0.perBankWrBursts::13          152220                       # Per bank write bursts
system.mem_ctrls0.perBankWrBursts::14          159435                       # Per bank write bursts
system.mem_ctrls0.perBankWrBursts::15          163665                       # Per bank write bursts
system.mem_ctrls0.numRdRetry                        0                       # Number of times read queue was full causing retry
system.mem_ctrls0.numWrRetry                        0                       # Number of times write queue was full causing retry
system.mem_ctrls0.totGap                 2462260810464                       # Total gap between requests
system.mem_ctrls0.readPktSize::0                    0                       # Read request sizes (log2)
system.mem_ctrls0.readPktSize::1                    0                       # Read request sizes (log2)
system.mem_ctrls0.readPktSize::2                    0                       # Read request sizes (log2)
system.mem_ctrls0.readPktSize::3                    0                       # Read request sizes (log2)
system.mem_ctrls0.readPktSize::4                    0                       # Read request sizes (log2)
system.mem_ctrls0.readPktSize::5                    0                       # Read request sizes (log2)
system.mem_ctrls0.readPktSize::6              7521100                       # Read request sizes (log2)
system.mem_ctrls0.writePktSize::0                   0                       # Write request sizes (log2)
system.mem_ctrls0.writePktSize::1                   0                       # Write request sizes (log2)
system.mem_ctrls0.writePktSize::2                   0                       # Write request sizes (log2)
system.mem_ctrls0.writePktSize::3                   0                       # Write request sizes (log2)
system.mem_ctrls0.writePktSize::4                   0                       # Write request sizes (log2)
system.mem_ctrls0.writePktSize::5                   0                       # Write request sizes (log2)
system.mem_ctrls0.writePktSize::6             2461282                       # Write request sizes (log2)
system.mem_ctrls0.rdQLenPdf::0                7128837                       # What read queue length does an incoming req see
system.mem_ctrls0.rdQLenPdf::1                 321488                       # What read queue length does an incoming req see
system.mem_ctrls0.rdQLenPdf::2                  58878                       # What read queue length does an incoming req see
system.mem_ctrls0.rdQLenPdf::3                   5849                       # What read queue length does an incoming req see
system.mem_ctrls0.rdQLenPdf::4                      1                       # What read queue length does an incoming req see
system.mem_ctrls0.rdQLenPdf::5                      0                       # What read queue length does an incoming req see
system.mem_ctrls0.rdQLenPdf::6                      0                       # What read queue length does an incoming req see
system.mem_ctrls0.rdQLenPdf::7                      0                       # What read queue length does an incoming req see
system.mem_ctrls0.rdQLenPdf::8                      0                       # What read queue length does an incoming req see
system.mem_ctrls0.rdQLenPdf::9                      0                       # What read queue length does an incoming req see
system.mem_ctrls0.rdQLenPdf::10                     0                       # What read queue length does an incoming req see
system.mem_ctrls0.rdQLenPdf::11                     0                       # What read queue length does an incoming req see
system.mem_ctrls0.rdQLenPdf::12                     0                       # What read queue length does an incoming req see
system.mem_ctrls0.rdQLenPdf::13                     0                       # What read queue length does an incoming req see
system.mem_ctrls0.rdQLenPdf::14                     0                       # What read queue length does an incoming req see
system.mem_ctrls0.rdQLenPdf::15                     0                       # What read queue length does an incoming req see
system.mem_ctrls0.rdQLenPdf::16                     0                       # What read queue length does an incoming req see
system.mem_ctrls0.rdQLenPdf::17                     0                       # What read queue length does an incoming req see
system.mem_ctrls0.rdQLenPdf::18                     0                       # What read queue length does an incoming req see
system.mem_ctrls0.rdQLenPdf::19                     0                       # What read queue length does an incoming req see
system.mem_ctrls0.rdQLenPdf::20                     0                       # What read queue length does an incoming req see
system.mem_ctrls0.rdQLenPdf::21                     0                       # What read queue length does an incoming req see
system.mem_ctrls0.rdQLenPdf::22                     0                       # What read queue length does an incoming req see
system.mem_ctrls0.rdQLenPdf::23                     0                       # What read queue length does an incoming req see
system.mem_ctrls0.rdQLenPdf::24                     0                       # What read queue length does an incoming req see
system.mem_ctrls0.rdQLenPdf::25                     0                       # What read queue length does an incoming req see
system.mem_ctrls0.rdQLenPdf::26                     0                       # What read queue length does an incoming req see
system.mem_ctrls0.rdQLenPdf::27                     0                       # What read queue length does an incoming req see
system.mem_ctrls0.rdQLenPdf::28                     0                       # What read queue length does an incoming req see
system.mem_ctrls0.rdQLenPdf::29                     0                       # What read queue length does an incoming req see
system.mem_ctrls0.rdQLenPdf::30                     0                       # What read queue length does an incoming req see
system.mem_ctrls0.rdQLenPdf::31                     0                       # What read queue length does an incoming req see
system.mem_ctrls0.wrQLenPdf::0                      2                       # What write queue length does an incoming req see
system.mem_ctrls0.wrQLenPdf::1                      2                       # What write queue length does an incoming req see
system.mem_ctrls0.wrQLenPdf::2                      2                       # What write queue length does an incoming req see
system.mem_ctrls0.wrQLenPdf::3                      2                       # What write queue length does an incoming req see
system.mem_ctrls0.wrQLenPdf::4                      2                       # What write queue length does an incoming req see
system.mem_ctrls0.wrQLenPdf::5                      2                       # What write queue length does an incoming req see
system.mem_ctrls0.wrQLenPdf::6                      2                       # What write queue length does an incoming req see
system.mem_ctrls0.wrQLenPdf::7                      2                       # What write queue length does an incoming req see
system.mem_ctrls0.wrQLenPdf::8                      2                       # What write queue length does an incoming req see
system.mem_ctrls0.wrQLenPdf::9                      2                       # What write queue length does an incoming req see
system.mem_ctrls0.wrQLenPdf::10                     2                       # What write queue length does an incoming req see
system.mem_ctrls0.wrQLenPdf::11                     2                       # What write queue length does an incoming req see
system.mem_ctrls0.wrQLenPdf::12                     2                       # What write queue length does an incoming req see
system.mem_ctrls0.wrQLenPdf::13                     2                       # What write queue length does an incoming req see
system.mem_ctrls0.wrQLenPdf::14                     2                       # What write queue length does an incoming req see
system.mem_ctrls0.wrQLenPdf::15                 77120                       # What write queue length does an incoming req see
system.mem_ctrls0.wrQLenPdf::16                 81357                       # What write queue length does an incoming req see
system.mem_ctrls0.wrQLenPdf::17                136789                       # What write queue length does an incoming req see
system.mem_ctrls0.wrQLenPdf::18                143257                       # What write queue length does an incoming req see
system.mem_ctrls0.wrQLenPdf::19                144305                       # What write queue length does an incoming req see
system.mem_ctrls0.wrQLenPdf::20                144468                       # What write queue length does an incoming req see
system.mem_ctrls0.wrQLenPdf::21                144509                       # What write queue length does an incoming req see
system.mem_ctrls0.wrQLenPdf::22                144423                       # What write queue length does an incoming req see
system.mem_ctrls0.wrQLenPdf::23                144297                       # What write queue length does an incoming req see
system.mem_ctrls0.wrQLenPdf::24                144268                       # What write queue length does an incoming req see
system.mem_ctrls0.wrQLenPdf::25                144209                       # What write queue length does an incoming req see
system.mem_ctrls0.wrQLenPdf::26                144252                       # What write queue length does an incoming req see
system.mem_ctrls0.wrQLenPdf::27                144672                       # What write queue length does an incoming req see
system.mem_ctrls0.wrQLenPdf::28                145083                       # What write queue length does an incoming req see
system.mem_ctrls0.wrQLenPdf::29                145937                       # What write queue length does an incoming req see
system.mem_ctrls0.wrQLenPdf::30                145170                       # What write queue length does an incoming req see
system.mem_ctrls0.wrQLenPdf::31                143529                       # What write queue length does an incoming req see
system.mem_ctrls0.wrQLenPdf::32                143388                       # What write queue length does an incoming req see
system.mem_ctrls0.wrQLenPdf::33                   149                       # What write queue length does an incoming req see
system.mem_ctrls0.wrQLenPdf::34                    52                       # What write queue length does an incoming req see
system.mem_ctrls0.wrQLenPdf::35                    12                       # What write queue length does an incoming req see
system.mem_ctrls0.wrQLenPdf::36                     3                       # What write queue length does an incoming req see
system.mem_ctrls0.wrQLenPdf::37                     2                       # What write queue length does an incoming req see
system.mem_ctrls0.wrQLenPdf::38                     1                       # What write queue length does an incoming req see
system.mem_ctrls0.wrQLenPdf::39                     0                       # What write queue length does an incoming req see
system.mem_ctrls0.wrQLenPdf::40                     0                       # What write queue length does an incoming req see
system.mem_ctrls0.wrQLenPdf::41                     0                       # What write queue length does an incoming req see
system.mem_ctrls0.wrQLenPdf::42                     0                       # What write queue length does an incoming req see
system.mem_ctrls0.wrQLenPdf::43                     0                       # What write queue length does an incoming req see
system.mem_ctrls0.wrQLenPdf::44                     0                       # What write queue length does an incoming req see
system.mem_ctrls0.wrQLenPdf::45                     0                       # What write queue length does an incoming req see
system.mem_ctrls0.wrQLenPdf::46                     0                       # What write queue length does an incoming req see
system.mem_ctrls0.wrQLenPdf::47                     0                       # What write queue length does an incoming req see
system.mem_ctrls0.wrQLenPdf::48                     0                       # What write queue length does an incoming req see
system.mem_ctrls0.wrQLenPdf::49                     0                       # What write queue length does an incoming req see
system.mem_ctrls0.wrQLenPdf::50                     0                       # What write queue length does an incoming req see
system.mem_ctrls0.wrQLenPdf::51                     0                       # What write queue length does an incoming req see
system.mem_ctrls0.wrQLenPdf::52                     0                       # What write queue length does an incoming req see
system.mem_ctrls0.wrQLenPdf::53                     0                       # What write queue length does an incoming req see
system.mem_ctrls0.wrQLenPdf::54                     0                       # What write queue length does an incoming req see
system.mem_ctrls0.wrQLenPdf::55                     0                       # What write queue length does an incoming req see
system.mem_ctrls0.wrQLenPdf::56                     0                       # What write queue length does an incoming req see
system.mem_ctrls0.wrQLenPdf::57                     0                       # What write queue length does an incoming req see
system.mem_ctrls0.wrQLenPdf::58                     0                       # What write queue length does an incoming req see
system.mem_ctrls0.wrQLenPdf::59                     0                       # What write queue length does an incoming req see
system.mem_ctrls0.wrQLenPdf::60                     0                       # What write queue length does an incoming req see
system.mem_ctrls0.wrQLenPdf::61                     0                       # What write queue length does an incoming req see
system.mem_ctrls0.wrQLenPdf::62                     0                       # What write queue length does an incoming req see
system.mem_ctrls0.wrQLenPdf::63                     0                       # What write queue length does an incoming req see
system.mem_ctrls0.bytesPerActivate::samples      4428336                       # Bytes accessed per row activation
system.mem_ctrls0.bytesPerActivate::mean   144.181276                       # Bytes accessed per row activation
system.mem_ctrls0.bytesPerActivate::gmean    99.316912                       # Bytes accessed per row activation
system.mem_ctrls0.bytesPerActivate::stdev   185.008112                       # Bytes accessed per row activation
system.mem_ctrls0.bytesPerActivate::0-127      2883303     65.11%     65.11% # Bytes accessed per row activation
system.mem_ctrls0.bytesPerActivate::128-255       946188     21.37%     86.48% # Bytes accessed per row activation
system.mem_ctrls0.bytesPerActivate::256-383       220475      4.98%     91.46% # Bytes accessed per row activation
system.mem_ctrls0.bytesPerActivate::384-511       112454      2.54%     94.00% # Bytes accessed per row activation
system.mem_ctrls0.bytesPerActivate::512-639        65766      1.49%     95.48% # Bytes accessed per row activation
system.mem_ctrls0.bytesPerActivate::640-767        49362      1.11%     96.59% # Bytes accessed per row activation
system.mem_ctrls0.bytesPerActivate::768-895        42621      0.96%     97.56% # Bytes accessed per row activation
system.mem_ctrls0.bytesPerActivate::896-1023        34918      0.79%     98.35% # Bytes accessed per row activation
system.mem_ctrls0.bytesPerActivate::1024-1151        73249      1.65%    100.00% # Bytes accessed per row activation
system.mem_ctrls0.bytesPerActivate::total      4428336                       # Bytes accessed per row activation
system.mem_ctrls0.rdPerTurnAround::samples       143314                       # Reads before turning the bus around for writes
system.mem_ctrls0.rdPerTurnAround::mean     52.433579                       # Reads before turning the bus around for writes
system.mem_ctrls0.rdPerTurnAround::stdev   118.058936                       # Reads before turning the bus around for writes
system.mem_ctrls0.rdPerTurnAround::0-1023       143166     99.90%     99.90% # Reads before turning the bus around for writes
system.mem_ctrls0.rdPerTurnAround::1024-2047          132      0.09%     99.99% # Reads before turning the bus around for writes
system.mem_ctrls0.rdPerTurnAround::2048-3071           13      0.01%    100.00% # Reads before turning the bus around for writes
system.mem_ctrls0.rdPerTurnAround::3072-4095            2      0.00%    100.00% # Reads before turning the bus around for writes
system.mem_ctrls0.rdPerTurnAround::31744-32767            1      0.00%    100.00% # Reads before turning the bus around for writes
system.mem_ctrls0.rdPerTurnAround::total       143314                       # Reads before turning the bus around for writes
system.mem_ctrls0.wrPerTurnAround::samples       143314                       # Writes before turning the bus around for reads
system.mem_ctrls0.wrPerTurnAround::mean     17.173898                       # Writes before turning the bus around for reads
system.mem_ctrls0.wrPerTurnAround::gmean    17.139583                       # Writes before turning the bus around for reads
system.mem_ctrls0.wrPerTurnAround::stdev     1.086826                       # Writes before turning the bus around for reads
system.mem_ctrls0.wrPerTurnAround::16           62694     43.75%     43.75% # Writes before turning the bus around for reads
system.mem_ctrls0.wrPerTurnAround::17            2923      2.04%     45.79% # Writes before turning the bus around for reads
system.mem_ctrls0.wrPerTurnAround::18           69066     48.19%     93.98% # Writes before turning the bus around for reads
system.mem_ctrls0.wrPerTurnAround::19            7613      5.31%     99.29% # Writes before turning the bus around for reads
system.mem_ctrls0.wrPerTurnAround::20             837      0.58%     99.87% # Writes before turning the bus around for reads
system.mem_ctrls0.wrPerTurnAround::21             135      0.09%     99.97% # Writes before turning the bus around for reads
system.mem_ctrls0.wrPerTurnAround::22              24      0.02%     99.98% # Writes before turning the bus around for reads
system.mem_ctrls0.wrPerTurnAround::23              12      0.01%     99.99% # Writes before turning the bus around for reads
system.mem_ctrls0.wrPerTurnAround::24               6      0.00%    100.00% # Writes before turning the bus around for reads
system.mem_ctrls0.wrPerTurnAround::26               2      0.00%    100.00% # Writes before turning the bus around for reads
system.mem_ctrls0.wrPerTurnAround::27               1      0.00%    100.00% # Writes before turning the bus around for reads
system.mem_ctrls0.wrPerTurnAround::28               1      0.00%    100.00% # Writes before turning the bus around for reads
system.mem_ctrls0.wrPerTurnAround::total       143314                       # Writes before turning the bus around for reads
system.mem_ctrls0.totQLat                141936220767                       # Total ticks spent queuing
system.mem_ctrls0.totMemAccLat           282843464517                       # Total ticks spent from burst creation until serviced by the DRAM
system.mem_ctrls0.totBusLat               37575265000                       # Total ticks spent in databus transfers
system.mem_ctrls0.avgQLat                    18886.92                       # Average queueing delay per DRAM burst
system.mem_ctrls0.avgBusLat                   5000.00                       # Average bus latency per DRAM burst
system.mem_ctrls0.avgMemAccLat               37636.92                       # Average memory access latency per DRAM burst
system.mem_ctrls0.avgRdBW                      195.33                       # Average DRAM read bandwidth in MiByte/s
system.mem_ctrls0.avgWrBW                       63.97                       # Average achieved write bandwidth in MiByte/s
system.mem_ctrls0.avgRdBWSys                   195.49                       # Average system read bandwidth in MiByte/s
system.mem_ctrls0.avgWrBWSys                    63.97                       # Average system write bandwidth in MiByte/s
system.mem_ctrls0.peakBW                     12800.00                       # Theoretical peak bandwidth in MiByte/s
system.mem_ctrls0.busUtil                        2.03                       # Data bus utilization in percentage
system.mem_ctrls0.busUtilRead                    1.53                       # Data bus utilization in percentage for reads
system.mem_ctrls0.busUtilWrite                   0.50                       # Data bus utilization in percentage for writes
system.mem_ctrls0.avgRdQLen                      1.03                       # Average read queue length when enqueuing
system.mem_ctrls0.avgWrQLen                     24.79                       # Average write queue length when enqueuing
system.mem_ctrls0.readRowHits                 4994041                       # Number of row buffer hits during reads
system.mem_ctrls0.writeRowHits                 553927                       # Number of row buffer hits during writes
system.mem_ctrls0.readRowHitRate                66.45                       # Row buffer hit rate for reads
system.mem_ctrls0.writeRowHitRate               22.51                       # Row buffer hit rate for writes
system.mem_ctrls0.avgGap                    246660.65                       # Average gap between requests
system.mem_ctrls0.pageHitRate                   55.61                       # Row buffer hit rate, read and write combined
system.mem_ctrls0_0.actEnergy             15855048300                       # Energy for activate commands per rank (pJ)
system.mem_ctrls0_0.preEnergy              8427139050                       # Energy for precharge commands per rank (pJ)
system.mem_ctrls0_0.readEnergy            27038837280                       # Energy for read commands per rank (pJ)
system.mem_ctrls0_0.writeEnergy            6448840200                       # Energy for write commands per rank (pJ)
system.mem_ctrls0_0.refreshEnergy        188421579840.000031                       # Energy for refresh commands per rank (pJ)
system.mem_ctrls0_0.actBackEnergy        137989232040                       # Energy for active background per rank (pJ)
system.mem_ctrls0_0.preBackEnergy          5199113280                       # Energy for precharge background per rank (pJ)
system.mem_ctrls0_0.actPowerDownEnergy   796655001780                       # Energy for active power-down per rank (pJ)
system.mem_ctrls0_0.prePowerDownEnergy    96468008640                       # Energy for precharge power-down per rank (pJ)
system.mem_ctrls0_0.selfRefreshEnergy     41018389980                       # Energy for self refresh per rank (pJ)
system.mem_ctrls0_0.totalEnergy          1323573956460                       # Total energy per rank (pJ)
system.mem_ctrls0_0.averagePower           537.544036                       # Core power per rank (mW)
system.mem_ctrls0_0.totalIdleTime        2145999180708                       # Total Idle time Per DRAM Rank
system.mem_ctrls0_0.memoryStateTime::IDLE   4471454351                       # Time in different power states
system.mem_ctrls0_0.memoryStateTime::REF  79771604000                       # Time in different power states
system.mem_ctrls0_0.memoryStateTime::SREF 147727498555                       # Time in different power states
system.mem_ctrls0_0.memoryStateTime::PRE_PDN 251219387197                       # Time in different power states
system.mem_ctrls0_0.memoryStateTime::ACT 232018704047                       # Time in different power states
system.mem_ctrls0_0.memoryStateTime::ACT_PDN 1747052774035                       # Time in different power states
system.mem_ctrls0_1.actEnergy             15763335000                       # Energy for activate commands per rank (pJ)
system.mem_ctrls0_1.preEnergy              8378396070                       # Energy for precharge commands per rank (pJ)
system.mem_ctrls0_1.readEnergy            26618641140                       # Energy for read commands per rank (pJ)
system.mem_ctrls0_1.writeEnergy            6398937000                       # Energy for write commands per rank (pJ)
system.mem_ctrls0_1.refreshEnergy        188787905280.000031                       # Energy for refresh commands per rank (pJ)
system.mem_ctrls0_1.actBackEnergy        139586349240                       # Energy for active background per rank (pJ)
system.mem_ctrls0_1.preBackEnergy          5312699520                       # Energy for precharge background per rank (pJ)
system.mem_ctrls0_1.actPowerDownEnergy   789267004350                       # Energy for active power-down per rank (pJ)
system.mem_ctrls0_1.prePowerDownEnergy    98887568640                       # Energy for precharge power-down per rank (pJ)
system.mem_ctrls0_1.selfRefreshEnergy     43302455445                       # Energy for self refresh per rank (pJ)
system.mem_ctrls0_1.totalEnergy          1322361291555                       # Total energy per rank (pJ)
system.mem_ctrls0_1.averagePower           537.051533                       # Core power per rank (mW)
system.mem_ctrls0_1.totalIdleTime        2142186293956                       # Total Idle time Per DRAM Rank
system.mem_ctrls0_1.memoryStateTime::IDLE   4853002103                       # Time in different power states
system.mem_ctrls0_1.memoryStateTime::REF  79935024000                       # Time in different power states
system.mem_ctrls0_1.memoryStateTime::SREF 153818429517                       # Time in different power states
system.mem_ctrls0_1.memoryStateTime::PRE_PDN 257516718567                       # Time in different power states
system.mem_ctrls0_1.memoryStateTime::ACT 235286439425                       # Time in different power states
system.mem_ctrls0_1.memoryStateTime::ACT_PDN 1730851808573                       # Time in different power states
system.mem_ctrls1.pwrStateResidencyTicks::UNDEFINED 72492234003531                       # Cumulative time (in ticks) in various power states
system.mem_ctrls1.bytes_read::cpu.inst             64                       # Number of bytes read from this memory
system.mem_ctrls1.bytes_read::switch_cpus.inst       139712                       # Number of bytes read from this memory
system.mem_ctrls1.bytes_read::switch_cpus.data    399557120                       # Number of bytes read from this memory
system.mem_ctrls1.bytes_read::switch_cpus_1.inst        44544                       # Number of bytes read from this memory
system.mem_ctrls1.bytes_read::switch_cpus_1.data     82409984                       # Number of bytes read from this memory
system.mem_ctrls1.bytes_read::total         482151424                       # Number of bytes read from this memory
system.mem_ctrls1.bytes_inst_read::cpu.inst           64                       # Number of instructions bytes read from this memory
system.mem_ctrls1.bytes_inst_read::switch_cpus.inst       139712                       # Number of instructions bytes read from this memory
system.mem_ctrls1.bytes_inst_read::switch_cpus_1.inst        44544                       # Number of instructions bytes read from this memory
system.mem_ctrls1.bytes_inst_read::total       184320                       # Number of instructions bytes read from this memory
system.mem_ctrls1.bytes_written::writebacks    157622208                       # Number of bytes written to this memory
system.mem_ctrls1.bytes_written::total      157622208                       # Number of bytes written to this memory
system.mem_ctrls1.num_reads::cpu.inst               1                       # Number of read requests responded to by this memory
system.mem_ctrls1.num_reads::switch_cpus.inst         2183                       # Number of read requests responded to by this memory
system.mem_ctrls1.num_reads::switch_cpus.data      6243080                       # Number of read requests responded to by this memory
system.mem_ctrls1.num_reads::switch_cpus_1.inst          696                       # Number of read requests responded to by this memory
system.mem_ctrls1.num_reads::switch_cpus_1.data      1287656                       # Number of read requests responded to by this memory
system.mem_ctrls1.num_reads::total            7533616                       # Number of read requests responded to by this memory
system.mem_ctrls1.num_writes::writebacks      2462847                       # Number of write requests responded to by this memory
system.mem_ctrls1.num_writes::total           2462847                       # Number of write requests responded to by this memory
system.mem_ctrls1.bw_read::cpu.inst                26                       # Total read bandwidth from this memory (bytes/s)
system.mem_ctrls1.bw_read::switch_cpus.inst        56741                       # Total read bandwidth from this memory (bytes/s)
system.mem_ctrls1.bw_read::switch_cpus.data    162272420                       # Total read bandwidth from this memory (bytes/s)
system.mem_ctrls1.bw_read::switch_cpus_1.inst        18091                       # Total read bandwidth from this memory (bytes/s)
system.mem_ctrls1.bw_read::switch_cpus_1.data     33469226                       # Total read bandwidth from this memory (bytes/s)
system.mem_ctrls1.bw_read::total            195816504                       # Total read bandwidth from this memory (bytes/s)
system.mem_ctrls1.bw_inst_read::cpu.inst           26                       # Instruction read bandwidth from this memory (bytes/s)
system.mem_ctrls1.bw_inst_read::switch_cpus.inst        56741                       # Instruction read bandwidth from this memory (bytes/s)
system.mem_ctrls1.bw_inst_read::switch_cpus_1.inst        18091                       # Instruction read bandwidth from this memory (bytes/s)
system.mem_ctrls1.bw_inst_read::total           74858                       # Instruction read bandwidth from this memory (bytes/s)
system.mem_ctrls1.bw_write::writebacks       64015221                       # Write bandwidth from this memory (bytes/s)
system.mem_ctrls1.bw_write::total            64015221                       # Write bandwidth from this memory (bytes/s)
system.mem_ctrls1.bw_total::writebacks       64015221                       # Total bandwidth to/from this memory (bytes/s)
system.mem_ctrls1.bw_total::cpu.inst               26                       # Total bandwidth to/from this memory (bytes/s)
system.mem_ctrls1.bw_total::switch_cpus.inst        56741                       # Total bandwidth to/from this memory (bytes/s)
system.mem_ctrls1.bw_total::switch_cpus.data    162272420                       # Total bandwidth to/from this memory (bytes/s)
system.mem_ctrls1.bw_total::switch_cpus_1.inst        18091                       # Total bandwidth to/from this memory (bytes/s)
system.mem_ctrls1.bw_total::switch_cpus_1.data     33469226                       # Total bandwidth to/from this memory (bytes/s)
system.mem_ctrls1.bw_total::total           259831725                       # Total bandwidth to/from this memory (bytes/s)
system.mem_ctrls1.readReqs                    7533616                       # Number of read requests accepted
system.mem_ctrls1.writeReqs                   2462847                       # Number of write requests accepted
system.mem_ctrls1.readBursts                  7533616                       # Number of DRAM read bursts, including those serviced by the write queue
system.mem_ctrls1.writeBursts                 2462847                       # Number of DRAM write bursts, including those merged in the write queue
system.mem_ctrls1.bytesReadDRAM             481771776                       # Total number of bytes read from DRAM
system.mem_ctrls1.bytesReadWrQ                 379648                       # Total number of bytes read from write queue
system.mem_ctrls1.bytesWritten              157620864                       # Total number of bytes written to DRAM
system.mem_ctrls1.bytesReadSys              482151424                       # Total read bytes from the system interface side
system.mem_ctrls1.bytesWrittenSys           157622208                       # Total written bytes from the system interface side
system.mem_ctrls1.servicedByWrQ                  5932                       # Number of DRAM read bursts serviced by the write queue
system.mem_ctrls1.mergedWrBursts                    0                       # Number of DRAM write bursts merged with an existing one
system.mem_ctrls1.neitherReadNorWriteReqs            0                       # Number of requests that are neither read nor write
system.mem_ctrls1.perBankRdBursts::0           503684                       # Per bank write bursts
system.mem_ctrls1.perBankRdBursts::1           476967                       # Per bank write bursts
system.mem_ctrls1.perBankRdBursts::2           467492                       # Per bank write bursts
system.mem_ctrls1.perBankRdBursts::3           472826                       # Per bank write bursts
system.mem_ctrls1.perBankRdBursts::4           468737                       # Per bank write bursts
system.mem_ctrls1.perBankRdBursts::5           480339                       # Per bank write bursts
system.mem_ctrls1.perBankRdBursts::6           457341                       # Per bank write bursts
system.mem_ctrls1.perBankRdBursts::7           461830                       # Per bank write bursts
system.mem_ctrls1.perBankRdBursts::8           478213                       # Per bank write bursts
system.mem_ctrls1.perBankRdBursts::9           464448                       # Per bank write bursts
system.mem_ctrls1.perBankRdBursts::10          464794                       # Per bank write bursts
system.mem_ctrls1.perBankRdBursts::11          469101                       # Per bank write bursts
system.mem_ctrls1.perBankRdBursts::12          462492                       # Per bank write bursts
system.mem_ctrls1.perBankRdBursts::13          465643                       # Per bank write bursts
system.mem_ctrls1.perBankRdBursts::14          461396                       # Per bank write bursts
system.mem_ctrls1.perBankRdBursts::15          472381                       # Per bank write bursts
system.mem_ctrls1.perBankWrBursts::0           164602                       # Per bank write bursts
system.mem_ctrls1.perBankWrBursts::1           152400                       # Per bank write bursts
system.mem_ctrls1.perBankWrBursts::2           155441                       # Per bank write bursts
system.mem_ctrls1.perBankWrBursts::3           155392                       # Per bank write bursts
system.mem_ctrls1.perBankWrBursts::4           153373                       # Per bank write bursts
system.mem_ctrls1.perBankWrBursts::5           154715                       # Per bank write bursts
system.mem_ctrls1.perBankWrBursts::6           149454                       # Per bank write bursts
system.mem_ctrls1.perBankWrBursts::7           151138                       # Per bank write bursts
system.mem_ctrls1.perBankWrBursts::8           151996                       # Per bank write bursts
system.mem_ctrls1.perBankWrBursts::9           150775                       # Per bank write bursts
system.mem_ctrls1.perBankWrBursts::10          150234                       # Per bank write bursts
system.mem_ctrls1.perBankWrBursts::11          149859                       # Per bank write bursts
system.mem_ctrls1.perBankWrBursts::12          148643                       # Per bank write bursts
system.mem_ctrls1.perBankWrBursts::13          152009                       # Per bank write bursts
system.mem_ctrls1.perBankWrBursts::14          159860                       # Per bank write bursts
system.mem_ctrls1.perBankWrBursts::15          162935                       # Per bank write bursts
system.mem_ctrls1.numRdRetry                        0                       # Number of times read queue was full causing retry
system.mem_ctrls1.numWrRetry                        0                       # Number of times write queue was full causing retry
system.mem_ctrls1.totGap                 2462261328279                       # Total gap between requests
system.mem_ctrls1.readPktSize::0                    0                       # Read request sizes (log2)
system.mem_ctrls1.readPktSize::1                    0                       # Read request sizes (log2)
system.mem_ctrls1.readPktSize::2                    0                       # Read request sizes (log2)
system.mem_ctrls1.readPktSize::3                    0                       # Read request sizes (log2)
system.mem_ctrls1.readPktSize::4                    0                       # Read request sizes (log2)
system.mem_ctrls1.readPktSize::5                    0                       # Read request sizes (log2)
system.mem_ctrls1.readPktSize::6              7533616                       # Read request sizes (log2)
system.mem_ctrls1.writePktSize::0                   0                       # Write request sizes (log2)
system.mem_ctrls1.writePktSize::1                   0                       # Write request sizes (log2)
system.mem_ctrls1.writePktSize::2                   0                       # Write request sizes (log2)
system.mem_ctrls1.writePktSize::3                   0                       # Write request sizes (log2)
system.mem_ctrls1.writePktSize::4                   0                       # Write request sizes (log2)
system.mem_ctrls1.writePktSize::5                   0                       # Write request sizes (log2)
system.mem_ctrls1.writePktSize::6             2462847                       # Write request sizes (log2)
system.mem_ctrls1.rdQLenPdf::0                7141189                       # What read queue length does an incoming req see
system.mem_ctrls1.rdQLenPdf::1                 322416                       # What read queue length does an incoming req see
system.mem_ctrls1.rdQLenPdf::2                  58138                       # What read queue length does an incoming req see
system.mem_ctrls1.rdQLenPdf::3                   5941                       # What read queue length does an incoming req see
system.mem_ctrls1.rdQLenPdf::4                      0                       # What read queue length does an incoming req see
system.mem_ctrls1.rdQLenPdf::5                      0                       # What read queue length does an incoming req see
system.mem_ctrls1.rdQLenPdf::6                      0                       # What read queue length does an incoming req see
system.mem_ctrls1.rdQLenPdf::7                      0                       # What read queue length does an incoming req see
system.mem_ctrls1.rdQLenPdf::8                      0                       # What read queue length does an incoming req see
system.mem_ctrls1.rdQLenPdf::9                      0                       # What read queue length does an incoming req see
system.mem_ctrls1.rdQLenPdf::10                     0                       # What read queue length does an incoming req see
system.mem_ctrls1.rdQLenPdf::11                     0                       # What read queue length does an incoming req see
system.mem_ctrls1.rdQLenPdf::12                     0                       # What read queue length does an incoming req see
system.mem_ctrls1.rdQLenPdf::13                     0                       # What read queue length does an incoming req see
system.mem_ctrls1.rdQLenPdf::14                     0                       # What read queue length does an incoming req see
system.mem_ctrls1.rdQLenPdf::15                     0                       # What read queue length does an incoming req see
system.mem_ctrls1.rdQLenPdf::16                     0                       # What read queue length does an incoming req see
system.mem_ctrls1.rdQLenPdf::17                     0                       # What read queue length does an incoming req see
system.mem_ctrls1.rdQLenPdf::18                     0                       # What read queue length does an incoming req see
system.mem_ctrls1.rdQLenPdf::19                     0                       # What read queue length does an incoming req see
system.mem_ctrls1.rdQLenPdf::20                     0                       # What read queue length does an incoming req see
system.mem_ctrls1.rdQLenPdf::21                     0                       # What read queue length does an incoming req see
system.mem_ctrls1.rdQLenPdf::22                     0                       # What read queue length does an incoming req see
system.mem_ctrls1.rdQLenPdf::23                     0                       # What read queue length does an incoming req see
system.mem_ctrls1.rdQLenPdf::24                     0                       # What read queue length does an incoming req see
system.mem_ctrls1.rdQLenPdf::25                     0                       # What read queue length does an incoming req see
system.mem_ctrls1.rdQLenPdf::26                     0                       # What read queue length does an incoming req see
system.mem_ctrls1.rdQLenPdf::27                     0                       # What read queue length does an incoming req see
system.mem_ctrls1.rdQLenPdf::28                     0                       # What read queue length does an incoming req see
system.mem_ctrls1.rdQLenPdf::29                     0                       # What read queue length does an incoming req see
system.mem_ctrls1.rdQLenPdf::30                     0                       # What read queue length does an incoming req see
system.mem_ctrls1.rdQLenPdf::31                     0                       # What read queue length does an incoming req see
system.mem_ctrls1.wrQLenPdf::0                      2                       # What write queue length does an incoming req see
system.mem_ctrls1.wrQLenPdf::1                      2                       # What write queue length does an incoming req see
system.mem_ctrls1.wrQLenPdf::2                      2                       # What write queue length does an incoming req see
system.mem_ctrls1.wrQLenPdf::3                      2                       # What write queue length does an incoming req see
system.mem_ctrls1.wrQLenPdf::4                      2                       # What write queue length does an incoming req see
system.mem_ctrls1.wrQLenPdf::5                      2                       # What write queue length does an incoming req see
system.mem_ctrls1.wrQLenPdf::6                      2                       # What write queue length does an incoming req see
system.mem_ctrls1.wrQLenPdf::7                      2                       # What write queue length does an incoming req see
system.mem_ctrls1.wrQLenPdf::8                      2                       # What write queue length does an incoming req see
system.mem_ctrls1.wrQLenPdf::9                      2                       # What write queue length does an incoming req see
system.mem_ctrls1.wrQLenPdf::10                     2                       # What write queue length does an incoming req see
system.mem_ctrls1.wrQLenPdf::11                     2                       # What write queue length does an incoming req see
system.mem_ctrls1.wrQLenPdf::12                     2                       # What write queue length does an incoming req see
system.mem_ctrls1.wrQLenPdf::13                     2                       # What write queue length does an incoming req see
system.mem_ctrls1.wrQLenPdf::14                     2                       # What write queue length does an incoming req see
system.mem_ctrls1.wrQLenPdf::15                 76710                       # What write queue length does an incoming req see
system.mem_ctrls1.wrQLenPdf::16                 81023                       # What write queue length does an incoming req see
system.mem_ctrls1.wrQLenPdf::17                136871                       # What write queue length does an incoming req see
system.mem_ctrls1.wrQLenPdf::18                143330                       # What write queue length does an incoming req see
system.mem_ctrls1.wrQLenPdf::19                144459                       # What write queue length does an incoming req see
system.mem_ctrls1.wrQLenPdf::20                144664                       # What write queue length does an incoming req see
system.mem_ctrls1.wrQLenPdf::21                144631                       # What write queue length does an incoming req see
system.mem_ctrls1.wrQLenPdf::22                144530                       # What write queue length does an incoming req see
system.mem_ctrls1.wrQLenPdf::23                144374                       # What write queue length does an incoming req see
system.mem_ctrls1.wrQLenPdf::24                144422                       # What write queue length does an incoming req see
system.mem_ctrls1.wrQLenPdf::25                144352                       # What write queue length does an incoming req see
system.mem_ctrls1.wrQLenPdf::26                144403                       # What write queue length does an incoming req see
system.mem_ctrls1.wrQLenPdf::27                144884                       # What write queue length does an incoming req see
system.mem_ctrls1.wrQLenPdf::28                145284                       # What write queue length does an incoming req see
system.mem_ctrls1.wrQLenPdf::29                146084                       # What write queue length does an incoming req see
system.mem_ctrls1.wrQLenPdf::30                145367                       # What write queue length does an incoming req see
system.mem_ctrls1.wrQLenPdf::31                143680                       # What write queue length does an incoming req see
system.mem_ctrls1.wrQLenPdf::32                143520                       # What write queue length does an incoming req see
system.mem_ctrls1.wrQLenPdf::33                   158                       # What write queue length does an incoming req see
system.mem_ctrls1.wrQLenPdf::34                    48                       # What write queue length does an incoming req see
system.mem_ctrls1.wrQLenPdf::35                    16                       # What write queue length does an incoming req see
system.mem_ctrls1.wrQLenPdf::36                     6                       # What write queue length does an incoming req see
system.mem_ctrls1.wrQLenPdf::37                     1                       # What write queue length does an incoming req see
system.mem_ctrls1.wrQLenPdf::38                     0                       # What write queue length does an incoming req see
system.mem_ctrls1.wrQLenPdf::39                     0                       # What write queue length does an incoming req see
system.mem_ctrls1.wrQLenPdf::40                     0                       # What write queue length does an incoming req see
system.mem_ctrls1.wrQLenPdf::41                     0                       # What write queue length does an incoming req see
system.mem_ctrls1.wrQLenPdf::42                     0                       # What write queue length does an incoming req see
system.mem_ctrls1.wrQLenPdf::43                     0                       # What write queue length does an incoming req see
system.mem_ctrls1.wrQLenPdf::44                     0                       # What write queue length does an incoming req see
system.mem_ctrls1.wrQLenPdf::45                     0                       # What write queue length does an incoming req see
system.mem_ctrls1.wrQLenPdf::46                     0                       # What write queue length does an incoming req see
system.mem_ctrls1.wrQLenPdf::47                     0                       # What write queue length does an incoming req see
system.mem_ctrls1.wrQLenPdf::48                     0                       # What write queue length does an incoming req see
system.mem_ctrls1.wrQLenPdf::49                     0                       # What write queue length does an incoming req see
system.mem_ctrls1.wrQLenPdf::50                     0                       # What write queue length does an incoming req see
system.mem_ctrls1.wrQLenPdf::51                     0                       # What write queue length does an incoming req see
system.mem_ctrls1.wrQLenPdf::52                     0                       # What write queue length does an incoming req see
system.mem_ctrls1.wrQLenPdf::53                     0                       # What write queue length does an incoming req see
system.mem_ctrls1.wrQLenPdf::54                     0                       # What write queue length does an incoming req see
system.mem_ctrls1.wrQLenPdf::55                     0                       # What write queue length does an incoming req see
system.mem_ctrls1.wrQLenPdf::56                     0                       # What write queue length does an incoming req see
system.mem_ctrls1.wrQLenPdf::57                     0                       # What write queue length does an incoming req see
system.mem_ctrls1.wrQLenPdf::58                     0                       # What write queue length does an incoming req see
system.mem_ctrls1.wrQLenPdf::59                     0                       # What write queue length does an incoming req see
system.mem_ctrls1.wrQLenPdf::60                     0                       # What write queue length does an incoming req see
system.mem_ctrls1.wrQLenPdf::61                     0                       # What write queue length does an incoming req see
system.mem_ctrls1.wrQLenPdf::62                     0                       # What write queue length does an incoming req see
system.mem_ctrls1.wrQLenPdf::63                     0                       # What write queue length does an incoming req see
system.mem_ctrls1.bytesPerActivate::samples      4434871                       # Bytes accessed per row activation
system.mem_ctrls1.bytesPerActivate::mean   144.173711                       # Bytes accessed per row activation
system.mem_ctrls1.bytesPerActivate::gmean    99.336158                       # Bytes accessed per row activation
system.mem_ctrls1.bytesPerActivate::stdev   184.912642                       # Bytes accessed per row activation
system.mem_ctrls1.bytesPerActivate::0-127      2886647     65.09%     65.09% # Bytes accessed per row activation
system.mem_ctrls1.bytesPerActivate::128-255       947655     21.37%     86.46% # Bytes accessed per row activation
system.mem_ctrls1.bytesPerActivate::256-383       221762      5.00%     91.46% # Bytes accessed per row activation
system.mem_ctrls1.bytesPerActivate::384-511       113255      2.55%     94.01% # Bytes accessed per row activation
system.mem_ctrls1.bytesPerActivate::512-639        65878      1.49%     95.50% # Bytes accessed per row activation
system.mem_ctrls1.bytesPerActivate::640-767        48935      1.10%     96.60% # Bytes accessed per row activation
system.mem_ctrls1.bytesPerActivate::768-895        42331      0.95%     97.56% # Bytes accessed per row activation
system.mem_ctrls1.bytesPerActivate::896-1023        34928      0.79%     98.34% # Bytes accessed per row activation
system.mem_ctrls1.bytesPerActivate::1024-1151        73480      1.66%    100.00% # Bytes accessed per row activation
system.mem_ctrls1.bytesPerActivate::total      4434871                       # Bytes accessed per row activation
system.mem_ctrls1.rdPerTurnAround::samples       143455                       # Reads before turning the bus around for writes
system.mem_ctrls1.rdPerTurnAround::mean     52.472294                       # Reads before turning the bus around for writes
system.mem_ctrls1.rdPerTurnAround::stdev   118.724637                       # Reads before turning the bus around for writes
system.mem_ctrls1.rdPerTurnAround::0-1023       143306     99.90%     99.90% # Reads before turning the bus around for writes
system.mem_ctrls1.rdPerTurnAround::1024-2047          138      0.10%     99.99% # Reads before turning the bus around for writes
system.mem_ctrls1.rdPerTurnAround::2048-3071            8      0.01%    100.00% # Reads before turning the bus around for writes
system.mem_ctrls1.rdPerTurnAround::3072-4095            2      0.00%    100.00% # Reads before turning the bus around for writes
system.mem_ctrls1.rdPerTurnAround::31744-32767            1      0.00%    100.00% # Reads before turning the bus around for writes
system.mem_ctrls1.rdPerTurnAround::total       143455                       # Reads before turning the bus around for writes
system.mem_ctrls1.wrPerTurnAround::samples       143455                       # Writes before turning the bus around for reads
system.mem_ctrls1.wrPerTurnAround::mean     17.167934                       # Writes before turning the bus around for reads
system.mem_ctrls1.wrPerTurnAround::gmean    17.133516                       # Writes before turning the bus around for reads
system.mem_ctrls1.wrPerTurnAround::stdev     1.088674                       # Writes before turning the bus around for reads
system.mem_ctrls1.wrPerTurnAround::16           63199     44.05%     44.05% # Writes before turning the bus around for reads
system.mem_ctrls1.wrPerTurnAround::17            2950      2.06%     46.11% # Writes before turning the bus around for reads
system.mem_ctrls1.wrPerTurnAround::18           68650     47.85%     93.97% # Writes before turning the bus around for reads
system.mem_ctrls1.wrPerTurnAround::19            7621      5.31%     99.28% # Writes before turning the bus around for reads
system.mem_ctrls1.wrPerTurnAround::20             840      0.59%     99.86% # Writes before turning the bus around for reads
system.mem_ctrls1.wrPerTurnAround::21             139      0.10%     99.96% # Writes before turning the bus around for reads
system.mem_ctrls1.wrPerTurnAround::22              36      0.03%     99.99% # Writes before turning the bus around for reads
system.mem_ctrls1.wrPerTurnAround::23               9      0.01%     99.99% # Writes before turning the bus around for reads
system.mem_ctrls1.wrPerTurnAround::24               6      0.00%    100.00% # Writes before turning the bus around for reads
system.mem_ctrls1.wrPerTurnAround::25               2      0.00%    100.00% # Writes before turning the bus around for reads
system.mem_ctrls1.wrPerTurnAround::26               2      0.00%    100.00% # Writes before turning the bus around for reads
system.mem_ctrls1.wrPerTurnAround::29               1      0.00%    100.00% # Writes before turning the bus around for reads
system.mem_ctrls1.wrPerTurnAround::total       143455                       # Writes before turning the bus around for reads
system.mem_ctrls1.totQLat                142403887272                       # Total ticks spent queuing
system.mem_ctrls1.totMemAccLat           283547962272                       # Total ticks spent from burst creation until serviced by the DRAM
system.mem_ctrls1.totBusLat               37638420000                       # Total ticks spent in databus transfers
system.mem_ctrls1.avgQLat                    18917.36                       # Average queueing delay per DRAM burst
system.mem_ctrls1.avgBusLat                   5000.00                       # Average bus latency per DRAM burst
system.mem_ctrls1.avgMemAccLat               37667.36                       # Average memory access latency per DRAM burst
system.mem_ctrls1.avgRdBW                      195.66                       # Average DRAM read bandwidth in MiByte/s
system.mem_ctrls1.avgWrBW                       64.01                       # Average achieved write bandwidth in MiByte/s
system.mem_ctrls1.avgRdBWSys                   195.82                       # Average system read bandwidth in MiByte/s
system.mem_ctrls1.avgWrBWSys                    64.02                       # Average system write bandwidth in MiByte/s
system.mem_ctrls1.peakBW                     12800.00                       # Theoretical peak bandwidth in MiByte/s
system.mem_ctrls1.busUtil                        2.03                       # Data bus utilization in percentage
system.mem_ctrls1.busUtilRead                    1.53                       # Data bus utilization in percentage for reads
system.mem_ctrls1.busUtilWrite                   0.50                       # Data bus utilization in percentage for writes
system.mem_ctrls1.avgRdQLen                      1.03                       # Average read queue length when enqueuing
system.mem_ctrls1.avgWrQLen                     24.80                       # Average write queue length when enqueuing
system.mem_ctrls1.readRowHits                 5000041                       # Number of row buffer hits during reads
system.mem_ctrls1.writeRowHits                 555589                       # Number of row buffer hits during writes
system.mem_ctrls1.readRowHitRate                66.42                       # Row buffer hit rate for reads
system.mem_ctrls1.writeRowHitRate               22.56                       # Row buffer hit rate for writes
system.mem_ctrls1.avgGap                    246313.25                       # Average gap between requests
system.mem_ctrls1.pageHitRate                   55.61                       # Row buffer hit rate, read and write combined
system.mem_ctrls1_0.actEnergy             15874254900                       # Energy for activate commands per rank (pJ)
system.mem_ctrls1_0.preEnergy              8437343805                       # Energy for precharge commands per rank (pJ)
system.mem_ctrls1_0.readEnergy            27055002240                       # Energy for read commands per rank (pJ)
system.mem_ctrls1_0.writeEnergy            6454608300                       # Energy for write commands per rank (pJ)
system.mem_ctrls1_0.refreshEnergy        188467677840.000031                       # Energy for refresh commands per rank (pJ)
system.mem_ctrls1_0.actBackEnergy        137563133670                       # Energy for active background per rank (pJ)
system.mem_ctrls1_0.preBackEnergy          5190563040                       # Energy for precharge background per rank (pJ)
system.mem_ctrls1_0.actPowerDownEnergy   797664875340                       # Energy for active power-down per rank (pJ)
system.mem_ctrls1_0.prePowerDownEnergy    96396805440                       # Energy for precharge power-down per rank (pJ)
system.mem_ctrls1_0.selfRefreshEnergy     40723872435                       # Energy for self refresh per rank (pJ)
system.mem_ctrls1_0.totalEnergy          1323883203930                       # Total energy per rank (pJ)
system.mem_ctrls1_0.averagePower           537.669630                       # Core power per rank (mW)
system.mem_ctrls1_0.totalIdleTime        2146944896210                       # Total Idle time Per DRAM Rank
system.mem_ctrls1_0.memoryStateTime::IDLE   4448807092                       # Time in different power states
system.mem_ctrls1_0.memoryStateTime::REF  79790996000                       # Time in different power states
system.mem_ctrls1_0.memoryStateTime::SREF 146649880479                       # Time in different power states
system.mem_ctrls1_0.memoryStateTime::PRE_PDN 251036030523                       # Time in different power states
system.mem_ctrls1_0.memoryStateTime::ACT 231076383525                       # Time in different power states
system.mem_ctrls1_0.memoryStateTime::ACT_PDN 1749259324566                       # Time in different power states
system.mem_ctrls1_1.actEnergy             15790788300                       # Energy for activate commands per rank (pJ)
system.mem_ctrls1_1.preEnergy              8392991640                       # Energy for precharge commands per rank (pJ)
system.mem_ctrls1_1.readEnergy            26692661520                       # Energy for read commands per rank (pJ)
system.mem_ctrls1_1.writeEnergy            6401343420                       # Energy for write commands per rank (pJ)
system.mem_ctrls1_1.refreshEnergy        188695709280.000031                       # Energy for refresh commands per rank (pJ)
system.mem_ctrls1_1.actBackEnergy        139602817680                       # Energy for active background per rank (pJ)
system.mem_ctrls1_1.preBackEnergy          5314932000                       # Energy for precharge background per rank (pJ)
system.mem_ctrls1_1.actPowerDownEnergy   790376334930                       # Energy for active power-down per rank (pJ)
system.mem_ctrls1_1.prePowerDownEnergy    97677452160                       # Energy for precharge power-down per rank (pJ)
system.mem_ctrls1_1.selfRefreshEnergy     43427187105                       # Energy for self refresh per rank (pJ)
system.mem_ctrls1_1.totalEnergy          1322429841435                       # Total energy per rank (pJ)
system.mem_ctrls1_1.averagePower           537.079374                       # Core power per rank (mW)
system.mem_ctrls1_1.totalIdleTime        2142144784172                       # Total Idle time Per DRAM Rank
system.mem_ctrls1_1.memoryStateTime::IDLE   4857558538                       # Time in different power states
system.mem_ctrls1_1.memoryStateTime::REF  79895634000                       # Time in different power states
system.mem_ctrls1_1.memoryStateTime::SREF 154495975804                       # Time in different power states
system.mem_ctrls1_1.memoryStateTime::PRE_PDN 254367677141                       # Time in different power states
system.mem_ctrls1_1.memoryStateTime::ACT 235363391304                       # Time in different power states
system.mem_ctrls1_1.memoryStateTime::ACT_PDN 1733281185398                       # Time in different power states
system.pwrStateResidencyTicks::UNDEFINED 72492234003531                       # Cumulative time (in ticks) in various power states
system.cpu.branchPred.lookups                       1                       # Number of BP lookups
system.cpu.branchPred.condPredicted                 1                       # Number of conditional branches predicted
system.cpu.branchPred.condIncorrect                 0                       # Number of conditional branches incorrect
system.cpu.branchPred.BTBLookups                    0                       # Number of BTB lookups
system.cpu.branchPred.BTBHits                       0                       # Number of BTB hits
system.cpu.branchPred.BTBCorrect                    0                       # Number of correct BTB predictions (this stat may not work properly.
system.cpu.branchPred.BTBHitPct                   nan                       # BTB Hit Percentage
system.cpu.branchPred.usedRAS                       0                       # Number of times the RAS was used to get a target.
system.cpu.branchPred.RASInCorrect                  0                       # Number of incorrect RAS predictions.
system.cpu.branchPred.indirectLookups               0                       # Number of indirect predictor lookups.
system.cpu.branchPred.indirectHits                  0                       # Number of indirect target hits.
system.cpu.branchPred.indirectMisses                0                       # Number of indirect misses.
system.cpu.branchPredindirectMispredicted            0                       # Number of mispredicted indirect branches.
system.cpu_voltage_domain.voltage                   1                       # Voltage in Volts
system.cpu_clk_domain.clock                       333                       # Clock period in ticks
system.cpu.dtb.fetch_hits                           0                       # ITB hits
system.cpu.dtb.fetch_misses                         0                       # ITB misses
system.cpu.dtb.fetch_acv                            0                       # ITB acv
system.cpu.dtb.fetch_accesses                       0                       # ITB accesses
system.cpu.dtb.read_hits                            2                       # DTB read hits
system.cpu.dtb.read_misses                          0                       # DTB read misses
system.cpu.dtb.read_acv                             0                       # DTB read access violations
system.cpu.dtb.read_accesses                        2                       # DTB read accesses
system.cpu.dtb.write_hits                           0                       # DTB write hits
system.cpu.dtb.write_misses                         0                       # DTB write misses
system.cpu.dtb.write_acv                            0                       # DTB write access violations
system.cpu.dtb.write_accesses                       0                       # DTB write accesses
system.cpu.dtb.data_hits                            2                       # DTB hits
system.cpu.dtb.data_misses                          0                       # DTB misses
system.cpu.dtb.data_acv                             0                       # DTB access violations
system.cpu.dtb.data_accesses                        2                       # DTB accesses
system.cpu.itb.fetch_hits                           3                       # ITB hits
system.cpu.itb.fetch_misses                         0                       # ITB misses
system.cpu.itb.fetch_acv                            0                       # ITB acv
system.cpu.itb.fetch_accesses                       3                       # ITB accesses
system.cpu.itb.read_hits                            0                       # DTB read hits
system.cpu.itb.read_misses                          0                       # DTB read misses
system.cpu.itb.read_acv                             0                       # DTB read access violations
system.cpu.itb.read_accesses                        0                       # DTB read accesses
system.cpu.itb.write_hits                           0                       # DTB write hits
system.cpu.itb.write_misses                         0                       # DTB write misses
system.cpu.itb.write_acv                            0                       # DTB write access violations
system.cpu.itb.write_accesses                       0                       # DTB write accesses
system.cpu.itb.data_hits                            0                       # DTB hits
system.cpu.itb.data_misses                          0                       # DTB misses
system.cpu.itb.data_acv                             0                       # DTB access violations
system.cpu.itb.data_accesses                        0                       # DTB accesses
system.cpu.workload.num_syscalls                    5                       # Number of system calls
system.cpu.pwrStateResidencyTicks::ON    2462261422185                       # Cumulative time (in ticks) in various power states
system.cpu.numCycles                              290                       # number of cpu cycles simulated
system.cpu.numWorkItemsStarted                      0                       # number of work items this cpu started
system.cpu.numWorkItemsCompleted                    0                       # number of work items this cpu completed
system.cpu.fetch.icacheStallCycles                 18                       # Number of cycles fetch is stalled on an Icache miss
system.cpu.fetch.Insts                             10                       # Number of instructions fetch has processed
system.cpu.fetch.Branches                           1                       # Number of branches that fetch encountered
system.cpu.fetch.Cycles                             2                       # Number of cycles fetch has run and was not squashing or blocked
system.cpu.fetch.SquashCycles                       3                       # Number of cycles fetch has spent squashing
system.cpu.fetch.PendingDrainCycles                 3                       # Number of cycles fetch has spent waiting on pipes to drain
system.cpu.fetch.CacheLines                         3                       # Number of cache lines fetched
system.cpu.fetch.IcacheSquashes                     2                       # Number of outstanding Icache misses that were squashed
[...]
system.switch_cpus_1.iq.int_inst_queue_wakeup_accesses    196194317                       # Number of integer instruction queue wakeup accesses
system.switch_cpus_1.iq.fp_inst_queue_reads    132624086                       # Number of floating instruction queue reads
system.switch_cpus_1.iq.fp_inst_queue_writes     84406559                       # Number of floating instruction queue writes
system.switch_cpus_1.iq.fp_inst_queue_wakeup_accesses     59317724                       # Number of floating instruction queue wakeup accesses
system.switch_cpus_1.iq.int_alu_accesses    212557942                       # Number of integer alu accesses
system.switch_cpus_1.iq.fp_alu_accesses      67878101                       # Number of floating point alu accesses
system.switch_cpus_1.iew.lsq.thread0.forwLoads      2264158                       # Number of loads that had data forwarded from stores
system.switch_cpus_1.iew.lsq.thread0.invAddrLoads            0                       # Number of loads ignored due to an invalid address
system.switch_cpus_1.iew.lsq.thread0.squashedLoads     21459931                       # Number of loads squashed
system.switch_cpus_1.iew.lsq.thread0.ignoredResponses        15056                       # Number of memory responses ignored because the instruction is squashed
system.switch_cpus_1.iew.lsq.thread0.memOrderViolation         8275                       # Number of memory ordering violations
system.switch_cpus_1.iew.lsq.thread0.squashedStores      7145466                       # Number of stores squashed
system.switch_cpus_1.iew.lsq.thread0.invAddrSwpfs            0                       # Number of software prefetches ignored due to an invalid address
system.switch_cpus_1.iew.lsq.thread0.blockedLoads            0                       # Number of blocked loads due to partial load-store forwarding
system.switch_cpus_1.iew.lsq.thread0.rescheduledLoads         5994                       # Number of loads that were rescheduled
system.switch_cpus_1.iew.lsq.thread0.cacheBlocked     12919647                       # Number of times an access to memory failed due to the cache being blocked
system.switch_cpus_1.iew.iewIdleCycles              0                       # Number of cycles IEW is idle
system.switch_cpus_1.iew.iewSquashCycles      1485896                       # Number of cycles IEW is squashing
system.switch_cpus_1.iew.iewBlockCycles     114845915                       # Number of cycles IEW is blocking
system.switch_cpus_1.iew.iewUnblockCycles     47383664                       # Number of cycles IEW is unblocking
system.switch_cpus_1.iew.iewDispatchedInsts    291767216                       # Number of instructions dispatched to IQ
system.switch_cpus_1.iew.iewDispSquashedInsts       147932                       # Number of squashed instructions skipped by dispatch
system.switch_cpus_1.iew.iewDispLoadInsts     61131662                       # Number of dispatched load instructions
system.switch_cpus_1.iew.iewDispStoreInsts     19136509                       # Number of dispatched store instructions
system.switch_cpus_1.iew.iewDispNonSpecInsts          206                       # Number of dispatched non-speculative instructions
system.switch_cpus_1.iew.iewIQFullEvents      1079267                       # Number of times the IQ has become full, causing a stall
system.switch_cpus_1.iew.iewLSQFullEvents     45746792                       # Number of times the LSQ has become full, causing a stall
system.switch_cpus_1.iew.memOrderViolationEvents         8275                       # Number of memory order violations
system.switch_cpus_1.iew.predictedTakenIncorrect       824113                       # Number of branches that were predicted taken incorrectly
system.switch_cpus_1.iew.predictedNotTakenIncorrect       563361                       # Number of branches that were predicted not taken incorrectly
system.switch_cpus_1.iew.branchMispredicts      1387474                       # Number of branch mispredicts detected at execute
system.switch_cpus_1.iew.iewExecutedInsts    271682529                       # Number of executed instructions
system.switch_cpus_1.iew.iewExecLoadInsts     68316064                       # Number of load instructions executed
system.switch_cpus_1.iew.iewExecSquashedInsts      1792050                       # Number of squashed instructions skipped in execute
system.switch_cpus_1.iew.exec_swp                   0                       # number of swp insts executed
system.switch_cpus_1.iew.exec_nop             1880959                       # number of nop insts executed
system.switch_cpus_1.iew.exec_refs           84013713                       # number of memory reference insts executed
system.switch_cpus_1.iew.exec_branches       34656379                       # Number of branches executed
system.switch_cpus_1.iew.exec_stores         15697649                       # Number of stores executed
system.switch_cpus_1.iew.exec_rate           0.584844                       # Inst execution rate
system.switch_cpus_1.iew.wb_sent            257494048                       # cumulative count of insts sent to commit
system.switch_cpus_1.iew.wb_count           255512041                       # cumulative count of insts written-back
system.switch_cpus_1.iew.wb_producers       153337157                       # num instructions producing a value
system.switch_cpus_1.iew.wb_consumers       189126755                       # num instructions consuming a value
system.switch_cpus_1.iew.wb_rate             0.550034                       # insts written-back per cycle
system.switch_cpus_1.iew.wb_fanout           0.810764                       # average fanout of values written-back
system.switch_cpus_1.commit.commitSquashedInsts     86321217                       # The number of squashed insts skipped by commit
system.switch_cpus_1.commit.commitNonSpecStalls          204                       # The number of times commit has been forced to stall to communicate backwards
system.switch_cpus_1.commit.branchMispredicts      1113248                       # The number of times a branch was mispredicted
system.switch_cpus_1.commit.committed_per_cycle::samples    452365700                       # Number of insts commited each cycle
system.switch_cpus_1.commit.committed_per_cycle::mean     0.444813                       # Number of insts commited each cycle
system.switch_cpus_1.commit.committed_per_cycle::stdev     1.706153                       # Number of insts commited each cycle
system.switch_cpus_1.commit.committed_per_cycle::underflows            0      0.00%      0.00% # Number of insts commited each cycle
system.switch_cpus_1.commit.committed_per_cycle::0    413365217     91.38%     91.38% # Number of insts commited each cycle
system.switch_cpus_1.commit.committed_per_cycle::1      9265040      2.05%     93.43% # Number of insts commited each cycle
system.switch_cpus_1.commit.committed_per_cycle::2      3946165      0.87%     94.30% # Number of insts commited each cycle
system.switch_cpus_1.commit.committed_per_cycle::3      1843097      0.41%     94.71% # Number of insts commited each cycle
system.switch_cpus_1.commit.committed_per_cycle::4      1219124      0.27%     94.98% # Number of insts commited each cycle
system.switch_cpus_1.commit.committed_per_cycle::5      1934225      0.43%     95.40% # Number of insts commited each cycle
system.switch_cpus_1.commit.committed_per_cycle::6       730347      0.16%     95.56% # Number of insts commited each cycle
system.switch_cpus_1.commit.committed_per_cycle::7       897896      0.20%     95.76% # Number of insts commited each cycle
system.switch_cpus_1.commit.committed_per_cycle::8     19164589      4.24%    100.00% # Number of insts commited each cycle
system.switch_cpus_1.commit.committed_per_cycle::overflows            0      0.00%    100.00% # Number of insts commited each cycle
system.switch_cpus_1.commit.committed_per_cycle::min_value            0                       # Number of insts commited each cycle
system.switch_cpus_1.commit.committed_per_cycle::max_value            8                       # Number of insts commited each cycle
system.switch_cpus_1.commit.committed_per_cycle::total    452365700                       # Number of insts commited each cycle
system.switch_cpus_1.commit.committedInsts    201218348                       # Number of instructions committed
system.switch_cpus_1.commit.committedOps    201218348                       # Number of ops (including micro ops) committed
system.switch_cpus_1.commit.swp_count               0                       # Number of s/w prefetches committed
system.switch_cpus_1.commit.refs             51662749                       # Number of memory references committed
system.switch_cpus_1.commit.loads            39671713                       # Number of loads committed
system.switch_cpus_1.commit.membars               102                       # Number of memory barriers committed
system.switch_cpus_1.commit.branches         28384894                       # Number of branches committed
system.switch_cpus_1.commit.fp_insts         51627815                       # Number of committed floating point instructions.
system.switch_cpus_1.commit.int_insts       168624392                       # Number of committed integer instructions.
system.switch_cpus_1.commit.function_calls       460018                       # Number of function calls committed.
system.switch_cpus_1.commit.op_class_0::No_OpClass      1218344      0.61%      0.61% # Class of committed instruction
system.switch_cpus_1.commit.op_class_0::IntAlu    117264313     58.28%     58.88% # Class of committed instruction
system.switch_cpus_1.commit.op_class_0::IntMult       166526      0.08%     58.97% # Class of committed instruction
system.switch_cpus_1.commit.op_class_0::IntDiv            0      0.00%     58.97% # Class of committed instruction
system.switch_cpus_1.commit.op_class_0::FloatAdd     18908760      9.40%     68.36% # Class of committed instruction
system.switch_cpus_1.commit.op_class_0::FloatCmp     10580725      5.26%     73.62% # Class of committed instruction
system.switch_cpus_1.commit.op_class_0::FloatCvt         1376      0.00%     73.62% # Class of committed instruction
system.switch_cpus_1.commit.op_class_0::FloatMult       880508      0.44%     74.06% # Class of committed instruction
system.switch_cpus_1.commit.op_class_0::FloatMultAcc            0      0.00%     74.06% # Class of committed instruction
system.switch_cpus_1.commit.op_class_0::FloatDiv       534945      0.27%     74.32% # Class of committed instruction
system.switch_cpus_1.commit.op_class_0::FloatMisc            0      0.00%     74.32% # Class of committed instruction
system.switch_cpus_1.commit.op_class_0::FloatSqrt            0      0.00%     74.32% # Class of committed instruction
system.switch_cpus_1.commit.op_class_0::SimdAdd            0      0.00%     74.32% # Class of committed instruction
system.switch_cpus_1.commit.op_class_0::SimdAddAcc            0      0.00%     74.32% # Class of committed instruction
system.switch_cpus_1.commit.op_class_0::SimdAlu            0      0.00%     74.32% # Class of committed instruction
system.switch_cpus_1.commit.op_class_0::SimdCmp            0      0.00%     74.32% # Class of committed instruction
system.switch_cpus_1.commit.op_class_0::SimdCvt            0      0.00%     74.32% # Class of committed instruction
system.switch_cpus_1.commit.op_class_0::SimdMisc            0      0.00%     74.32% # Class of committed instruction
system.switch_cpus_1.commit.op_class_0::SimdMult            0      0.00%     74.32% # Class of committed instruction
system.switch_cpus_1.commit.op_class_0::SimdMultAcc            0      0.00%     74.32% # Class of committed instruction
system.switch_cpus_1.commit.op_class_0::SimdShift            0      0.00%     74.32% # Class of committed instruction
system.switch_cpus_1.commit.op_class_0::SimdShiftAcc            0      0.00%     74.32% # Class of committed instruction
system.switch_cpus_1.commit.op_class_0::SimdSqrt            0      0.00%     74.32% # Class of committed instruction
system.switch_cpus_1.commit.op_class_0::SimdFloatAdd            0      0.00%     74.32% # Class of committed instruction
system.switch_cpus_1.commit.op_class_0::SimdFloatAlu            0      0.00%     74.32% # Class of committed instruction
system.switch_cpus_1.commit.op_class_0::SimdFloatCmp            0      0.00%     74.32% # Class of committed instruction
system.switch_cpus_1.commit.op_class_0::SimdFloatCvt            0      0.00%     74.32% # Class of committed instruction
system.switch_cpus_1.commit.op_class_0::SimdFloatDiv            0      0.00%     74.32% # Class of committed instruction
system.switch_cpus_1.commit.op_class_0::SimdFloatMisc            0      0.00%     74.32% # Class of committed instruction
system.switch_cpus_1.commit.op_class_0::SimdFloatMult            0      0.00%     74.32% # Class of committed instruction
system.switch_cpus_1.commit.op_class_0::SimdFloatMultAcc            0      0.00%     74.32% # Class of committed instruction
system.switch_cpus_1.commit.op_class_0::SimdFloatSqrt            0      0.00%     74.32% # Class of committed instruction
system.switch_cpus_1.commit.op_class_0::MemRead     20146501     10.01%     84.34% # Class of committed instruction
system.switch_cpus_1.commit.op_class_0::MemWrite     10794849      5.36%     89.70% # Class of committed instruction
system.switch_cpus_1.commit.op_class_0::FloatMemRead     19525314      9.70%     99.41% # Class of committed instruction
system.switch_cpus_1.commit.op_class_0::FloatMemWrite      1196187      0.59%    100.00% # Class of committed instruction
system.switch_cpus_1.commit.op_class_0::IprAccess            0      0.00%    100.00% # Class of committed instruction
system.switch_cpus_1.commit.op_class_0::InstPrefetch            0      0.00%    100.00% # Class of committed instruction
system.switch_cpus_1.commit.op_class_0::total    201218348                       # Class of committed instruction
system.switch_cpus_1.commit.bw_lim_events     19164589                       # number cycles where commit BW limit reached
system.switch_cpus_1.rob.rob_reads          715975617                       # The number of ROB reads
system.switch_cpus_1.rob.rob_writes         587034076                       # The number of ROB writes
system.switch_cpus_1.timesIdled                  2243                       # Number of times that the entire CPU went into an idle state and unscheduled itself
system.switch_cpus_1.idleCycles                239494                       # Total number of cycles that the CPU has spent unscheduled due to idling
system.switch_cpus_1.committedInsts         200000004                       # Number of Instructions Simulated
system.switch_cpus_1.committedOps           200000004                       # Number of Ops (including micro ops) Simulated
system.switch_cpus_1.cpi                     2.322692                       # CPI: Cycles Per Instruction
system.switch_cpus_1.cpi_total               2.322692                       # CPI: Total CPI of All Threads
system.switch_cpus_1.ipc                     0.430535                       # IPC: Instructions Per Cycle
system.switch_cpus_1.ipc_total               0.430535                       # IPC: Total IPC of All Threads
system.switch_cpus_1.int_regfile_reads      353714717                       # number of integer regfile reads
system.switch_cpus_1.int_regfile_writes     160120680                       # number of integer regfile writes
system.switch_cpus_1.fp_regfile_reads        59490255                       # number of floating regfile reads
system.switch_cpus_1.fp_regfile_writes       46486182                       # number of floating regfile writes
system.switch_cpus_1.misc_regfile_reads           243                       # number of misc regfile reads
system.switch_cpus_1.misc_regfile_writes          204                       # number of misc regfile writes
system.tol3bus.snoop_filter.tot_requests     51973944                       # Total number of requests made to the snoop filter.
system.tol3bus.snoop_filter.hit_single_requests     25984750                       # Number of requests hitting in the snoop filter with a single holder of the requested data.
system.tol3bus.snoop_filter.hit_multi_requests            0                       # Number of requests hitting in the snoop filter with multiple (>1) holders of the requested data.
system.tol3bus.snoop_filter.tot_snoops          47683                       # Total number of snoops made to the snoop filter.
system.tol3bus.snoop_filter.hit_single_snoops        47683                       # Number of snoops hitting in the snoop filter with a single holder of the requested data.
system.tol3bus.snoop_filter.hit_multi_snoops            0                       # Number of snoops hitting in the snoop filter with multiple (>1) holders of the requested data.
system.tol3bus.pwrStateResidencyTicks::UNDEFINED 72492234003531                       # Cumulative time (in ticks) in various power states
system.tol3bus.trans_dist::ReadResp          19569314                       # Transaction distribution
system.tol3bus.trans_dist::WritebackDirty     17618212                       # Transaction distribution
system.tol3bus.trans_dist::CleanEvict        23363088                       # Transaction distribution
system.tol3bus.trans_dist::UpgradeReq              28                       # Transaction distribution
system.tol3bus.trans_dist::UpgradeResp             28                       # Transaction distribution
system.tol3bus.trans_dist::ReadExReq          6419880                       # Transaction distribution
system.tol3bus.trans_dist::ReadExResp         6419880                       # Transaction distribution
system.tol3bus.trans_dist::ReadSharedReq     19569314                       # Transaction distribution
system.tol3bus.pkt_count_system.cpu.l2.mem_side::system.l3.cpu_side     77963166                       # Packet count per connected master and slave (bytes)
system.tol3bus.pkt_size_system.cpu.l2.mem_side::system.l3.cpu_side   2475729728                       # Cumulative packet size per connected master and slave (bytes)
system.tol3bus.snoops                        14996578                       # Total snoops (count)
system.tol3bus.snoopTraffic                 315144256                       # Total snoop traffic (bytes)
system.tol3bus.snoop_fanout::samples         40985800                       # Request fanout histogram
system.tol3bus.snoop_fanout::mean            0.001163                       # Request fanout histogram
system.tol3bus.snoop_fanout::stdev           0.034089                       # Request fanout histogram
system.tol3bus.snoop_fanout::underflows             0      0.00%      0.00% # Request fanout histogram
system.tol3bus.snoop_fanout::0               40938117     99.88%     99.88% # Request fanout histogram
system.tol3bus.snoop_fanout::1                  47683      0.12%    100.00% # Request fanout histogram
system.tol3bus.snoop_fanout::overflows              0      0.00%    100.00% # Request fanout histogram
system.tol3bus.snoop_fanout::min_value              0                       # Request fanout histogram
system.tol3bus.snoop_fanout::max_value              1                       # Request fanout histogram
system.tol3bus.snoop_fanout::total           40985800                       # Request fanout histogram
system.tol3bus.reqLayer0.occupancy        21534452991                       # Layer occupancy (ticks)
system.tol3bus.reqLayer0.utilization              0.9                       # Layer utilization (%)
system.tol3bus.respLayer0.occupancy       17308812528                       # Layer occupancy (ticks)
system.tol3bus.respLayer0.utilization             0.7                       # Layer utilization (%)

---------- End Simulation Statistics   ----------
