
---------- Begin Simulation Statistics ----------
sim_seconds                                  2.869966                       # Number of seconds simulated
sim_ticks                                2869965858636                       # Number of ticks simulated
final_tick                               76140119659338                       # Number of ticks from beginning of simulation (restored from checkpoints and never reset)
sim_freq                                 1000000000000                       # Frequency of simulated ticks
host_inst_rate                                 168325                       # Simulator instruction rate (inst/s)
host_op_rate                                   168325                       # Simulator op (including micro ops) rate (op/s)
host_tick_rate                              241543318                       # Simulator tick rate (ticks/s)
host_mem_usage                                2404880                       # Number of bytes of host memory used
host_seconds                                 11881.79                       # Real time elapsed on the host
sim_insts                                  2000000009                       # Number of instructions simulated
sim_ops                                    2000000009                       # Number of ops (including micro ops) simulated
system.voltage_domain.voltage                       1                       # Voltage in Volts
system.clk_domain.clock                          1000                       # Clock period in ticks
system.mem_ctrls0.pwrStateResidencyTicks::UNDEFINED 76140119659338                       # Cumulative time (in ticks) in various power states
system.mem_ctrls0.bytes_read::cpu.inst            128                       # Number of bytes read from this memory
system.mem_ctrls0.bytes_read::cpu.data            192                       # Number of bytes read from this memory
system.mem_ctrls0.bytes_read::switch_cpus.inst        43968                       # Number of bytes read from this memory
system.mem_ctrls0.bytes_read::switch_cpus.data    232711808                       # Number of bytes read from this memory
system.mem_ctrls0.bytes_read::switch_cpus_1.inst        27072                       # Number of bytes read from this memory
system.mem_ctrls0.bytes_read::switch_cpus_1.data    228915520                       # Number of bytes read from this memory
system.mem_ctrls0.bytes_read::total         461698688                       # Number of bytes read from this memory
system.mem_ctrls0.bytes_inst_read::cpu.inst          128                       # Number of instructions bytes read from this memory
system.mem_ctrls0.bytes_inst_read::switch_cpus.inst        43968                       # Number of instructions bytes read from this memory
system.mem_ctrls0.bytes_inst_read::switch_cpus_1.inst        27072                       # Number of instructions bytes read from this memory
system.mem_ctrls0.bytes_inst_read::total        71168                       # Number of instructions bytes read from this memory
system.mem_ctrls0.bytes_written::writebacks    147089408                       # Number of bytes written to this memory
system.mem_ctrls0.bytes_written::total      147089408                       # Number of bytes written to this memory
system.mem_ctrls0.num_reads::cpu.inst               2                       # Number of read requests responded to by this memory
system.mem_ctrls0.num_reads::cpu.data               3                       # Number of read requests responded to by this memory
system.mem_ctrls0.num_reads::switch_cpus.inst          687                       # Number of read requests responded to by this memory
system.mem_ctrls0.num_reads::switch_cpus.data      3636122                       # Number of read requests responded to by this memory
system.mem_ctrls0.num_reads::switch_cpus_1.inst          423                       # Number of read requests responded to by this memory
system.mem_ctrls0.num_reads::switch_cpus_1.data      3576805                       # Number of read requests responded to by this memory
system.mem_ctrls0.num_reads::total            7214042                       # Number of read requests responded to by this memory
system.mem_ctrls0.num_writes::writebacks      2298272                       # Number of write requests responded to by this memory
system.mem_ctrls0.num_writes::total           2298272                       # Number of write requests responded to by this memory
system.mem_ctrls0.bw_read::cpu.inst                45                       # Total read bandwidth from this memory (bytes/s)
system.mem_ctrls0.bw_read::cpu.data                67                       # Total read bandwidth from this memory (bytes/s)
system.mem_ctrls0.bw_read::switch_cpus.inst        15320                       # Total read bandwidth from this memory (bytes/s)
system.mem_ctrls0.bw_read::switch_cpus.data     81085218                       # Total read bandwidth from this memory (bytes/s)
system.mem_ctrls0.bw_read::switch_cpus_1.inst         9433                       # Total read bandwidth from this memory (bytes/s)
system.mem_ctrls0.bw_read::switch_cpus_1.data     79762454                       # Total read bandwidth from this memory (bytes/s)
system.mem_ctrls0.bw_read::total            160872537                       # Total read bandwidth from this memory (bytes/s)
system.mem_ctrls0.bw_inst_read::cpu.inst           45                       # Instruction read bandwidth from this memory (bytes/s)
system.mem_ctrls0.bw_inst_read::switch_cpus.inst        15320                       # Instruction read bandwidth from this memory (bytes/s)
system.mem_ctrls0.bw_inst_read::switch_cpus_1.inst         9433                       # Instruction read bandwidth from this memory (bytes/s)
system.mem_ctrls0.bw_inst_read::total           24798                       # Instruction read bandwidth from this memory (bytes/s)
system.mem_ctrls0.bw_write::writebacks       51251274                       # Write bandwidth from this memory (bytes/s)
system.mem_ctrls0.bw_write::total            51251274                       # Write bandwidth from this memory (bytes/s)
system.mem_ctrls0.bw_total::writebacks       51251274                       # Total bandwidth to/from this memory (bytes/s)
system.mem_ctrls0.bw_total::cpu.inst               45                       # Total bandwidth to/from this memory (bytes/s)
system.mem_ctrls0.bw_total::cpu.data               67                       # Total bandwidth to/from this memory (bytes/s)
system.mem_ctrls0.bw_total::switch_cpus.inst        15320                       # Total bandwidth to/from this memory (bytes/s)
system.mem_ctrls0.bw_total::switch_cpus.data     81085218                       # Total bandwidth to/from this memory (bytes/s)
system.mem_ctrls0.bw_total::switch_cpus_1.inst         9433                       # Total bandwidth to/from this memory (bytes/s)
system.mem_ctrls0.bw_total::switch_cpus_1.data     79762454                       # Total bandwidth to/from this memory (bytes/s)
system.mem_ctrls0.bw_total::total           212123811                       # Total bandwidth to/from this memory (bytes/s)
system.mem_ctrls0.readReqs                    7214042                       # Number of read requests accepted
system.mem_ctrls0.writeReqs                   2298272                       # Number of write requests accepted
system.mem_ctrls0.readBursts                  7214042                       # Number of DRAM read bursts, including those serviced by the write queue
system.mem_ctrls0.writeBursts                 2298272                       # Number of DRAM write bursts, including those merged in the write queue
system.mem_ctrls0.bytesReadDRAM             461657664                       # Total number of bytes read from DRAM
system.mem_ctrls0.bytesReadWrQ                  41024                       # Total number of bytes read from write queue
system.mem_ctrls0.bytesWritten              147088320                       # Total number of bytes written to DRAM
system.mem_ctrls0.bytesReadSys              461698688                       # Total read bytes from the system interface side
system.mem_ctrls0.bytesWrittenSys           147089408                       # Total written bytes from the system interface side
system.mem_ctrls0.servicedByWrQ                   641                       # Number of DRAM read bursts serviced by the write queue
system.mem_ctrls0.mergedWrBursts                    0                       # Number of DRAM write bursts merged with an existing one
system.mem_ctrls0.neitherReadNorWriteReqs            0                       # Number of requests that are neither read nor write
system.mem_ctrls0.perBankRdBursts::0           459230                       # Per bank write bursts
system.mem_ctrls0.perBankRdBursts::1           452630                       # Per bank write bursts
system.mem_ctrls0.perBankRdBursts::2           448453                       # Per bank write bursts
system.mem_ctrls0.perBankRdBursts::3           450040                       # Per bank write bursts
system.mem_ctrls0.perBankRdBursts::4           450883                       # Per bank write bursts
system.mem_ctrls0.perBankRdBursts::5           453811                       # Per bank write bursts
system.mem_ctrls0.perBankRdBursts::6           452057                       # Per bank write bursts
system.mem_ctrls0.perBankRdBursts::7           454675                       # Per bank write bursts
system.mem_ctrls0.perBankRdBursts::8           456658                       # Per bank write bursts
system.mem_ctrls0.perBankRdBursts::9           450981                       # Per bank write bursts
system.mem_ctrls0.perBankRdBursts::10          443492                       # Per bank write bursts
system.mem_ctrls0.perBankRdBursts::11          440322                       # Per bank write bursts
system.mem_ctrls0.perBankRdBursts::12          442042                       # Per bank write bursts
system.mem_ctrls0.perBankRdBursts::13          448865                       # Per bank write bursts
system.mem_ctrls0.perBankRdBursts::14          454393                       # Per bank write bursts
system.mem_ctrls0.perBankRdBursts::15          454869                       # Per bank write bursts
system.mem_ctrls0.perBankWrBursts::0           147379                       # Per bank write bursts
system.mem_ctrls0.perBankWrBursts::1           144503                       # Per bank write bursts
system.mem_ctrls0.perBankWrBursts::2           143989                       # Per bank write bursts
system.mem_ctrls0.perBankWrBursts::3           145721                       # Per bank write bursts
system.mem_ctrls0.perBankWrBursts::4           146567                       # Per bank write bursts
system.mem_ctrls0.perBankWrBursts::5           146414                       # Per bank write bursts
system.mem_ctrls0.perBankWrBursts::6           142157                       # Per bank write bursts
system.mem_ctrls0.perBankWrBursts::7           140975                       # Per bank write bursts
system.mem_ctrls0.perBankWrBursts::8           141866                       # Per bank write bursts
system.mem_ctrls0.perBankWrBursts::9           141851                       # Per bank write bursts
system.mem_ctrls0.perBankWrBursts::10          141894                       # Per bank write bursts
system.mem_ctrls0.perBankWrBursts::11          140748                       # Per bank write bursts
system.mem_ctrls0.perBankWrBursts::12          140891                       # Per bank write bursts
system.mem_ctrls0.perBankWrBursts::13          142595                       # Per bank write bursts
system.mem_ctrls0.perBankWrBursts::14          145323                       # Per bank write bursts
system.mem_ctrls0.perBankWrBursts::15          145382                       # Per bank write bursts
system.mem_ctrls0.numRdRetry                        0                       # Number of times read queue was full causing retry
system.mem_ctrls0.numWrRetry                        0                       # Number of times write queue was full causing retry
system.mem_ctrls0.totGap                 2869965436059                       # Total gap between requests
system.mem_ctrls0.readPktSize::0                    0                       # Read request sizes (log2)
system.mem_ctrls0.readPktSize::1                    0                       # Read request sizes (log2)
system.mem_ctrls0.readPktSize::2                    0                       # Read request sizes (log2)
system.mem_ctrls0.readPktSize::3                    0                       # Read request sizes (log2)
system.mem_ctrls0.readPktSize::4                    0                       # Read request sizes (log2)
system.mem_ctrls0.readPktSize::5                    0                       # Read request sizes (log2)
system.mem_ctrls0.readPktSize::6              7214042                       # Read request sizes (log2)
system.mem_ctrls0.writePktSize::0                   0                       # Write request sizes (log2)
system.mem_ctrls0.writePktSize::1                   0                       # Write request sizes (log2)
system.mem_ctrls0.writePktSize::2                   0                       # Write request sizes (log2)
system.mem_ctrls0.writePktSize::3                   0                       # Write request sizes (log2)
system.mem_ctrls0.writePktSize::4                   0                       # Write request sizes (log2)
system.mem_ctrls0.writePktSize::5                   0                       # Write request sizes (log2)
system.mem_ctrls0.writePktSize::6             2298272                       # Write request sizes (log2)
system.mem_ctrls0.rdQLenPdf::0                6229735                       # What read queue length does an incoming req see
system.mem_ctrls0.rdQLenPdf::1                 800521                       # What read queue length does an incoming req see
system.mem_ctrls0.rdQLenPdf::2                 171584                       # What read queue length does an incoming req see
system.mem_ctrls0.rdQLenPdf::3                  11557                       # What read queue length does an incoming req see
system.mem_ctrls0.rdQLenPdf::4                      4                       # What read queue length does an incoming req see
system.mem_ctrls0.rdQLenPdf::5                      0                       # What read queue length does an incoming req see
system.mem_ctrls0.rdQLenPdf::6                      0                       # What read queue length does an incoming req see
system.mem_ctrls0.rdQLenPdf::7                      0                       # What read queue length does an incoming req see
system.mem_ctrls0.rdQLenPdf::8                      0                       # What read queue length does an incoming req see
system.mem_ctrls0.rdQLenPdf::9                      0                       # What read queue length does an incoming req see
system.mem_ctrls0.rdQLenPdf::10                     0                       # What read queue length does an incoming req see
system.mem_ctrls0.rdQLenPdf::11                     0                       # What read queue length does an incoming req see
system.mem_ctrls0.rdQLenPdf::12                     0                       # What read queue length does an incoming req see
system.mem_ctrls0.rdQLenPdf::13                     0                       # What read queue length does an incoming req see
system.mem_ctrls0.rdQLenPdf::14                     0                       # What read queue length does an incoming req see
system.mem_ctrls0.rdQLenPdf::15                     0                       # What read queue length does an incoming req see
system.mem_ctrls0.rdQLenPdf::16                     0                       # What read queue length does an incoming req see
system.mem_ctrls0.rdQLenPdf::17                     0                       # What read queue length does an incoming req see
system.mem_ctrls0.rdQLenPdf::18                     0                       # What read queue length does an incoming req see
system.mem_ctrls0.rdQLenPdf::19                     0                       # What read queue length does an incoming req see
system.mem_ctrls0.rdQLenPdf::20                     0                       # What read queue length does an incoming req see
system.mem_ctrls0.rdQLenPdf::21                     0                       # What read queue length does an incoming req see
system.mem_ctrls0.rdQLenPdf::22                     0                       # What read queue length does an incoming req see
system.mem_ctrls0.rdQLenPdf::23                     0                       # What read queue length does an incoming req see
system.mem_ctrls0.rdQLenPdf::24                     0                       # What read queue length does an incoming req see
system.mem_ctrls0.rdQLenPdf::25                     0                       # What read queue length does an incoming req see
system.mem_ctrls0.rdQLenPdf::26                     0                       # What read queue length does an incoming req see
system.mem_ctrls0.rdQLenPdf::27                     0                       # What read queue length does an incoming req see
system.mem_ctrls0.rdQLenPdf::28                     0                       # What read queue length does an incoming req see
system.mem_ctrls0.rdQLenPdf::29                     0                       # What read queue length does an incoming req see
system.mem_ctrls0.rdQLenPdf::30                     0                       # What read queue length does an incoming req see
system.mem_ctrls0.rdQLenPdf::31                     0                       # What read queue length does an incoming req see
system.mem_ctrls0.wrQLenPdf::0                      2                       # What write queue length does an incoming req see
system.mem_ctrls0.wrQLenPdf::1                      2                       # What write queue length does an incoming req see
system.mem_ctrls0.wrQLenPdf::2                      2                       # What write queue length does an incoming req see
system.mem_ctrls0.wrQLenPdf::3                      2                       # What write queue length does an incoming req see
system.mem_ctrls0.wrQLenPdf::4                      2                       # What write queue length does an incoming req see
system.mem_ctrls0.wrQLenPdf::5                      2                       # What write queue length does an incoming req see
system.mem_ctrls0.wrQLenPdf::6                      2                       # What write queue length does an incoming req see
system.mem_ctrls0.wrQLenPdf::7                      2                       # What write queue length does an incoming req see
system.mem_ctrls0.wrQLenPdf::8                      2                       # What write queue length does an incoming req see
system.mem_ctrls0.wrQLenPdf::9                      2                       # What write queue length does an incoming req see
system.mem_ctrls0.wrQLenPdf::10                     2                       # What write queue length does an incoming req see
system.mem_ctrls0.wrQLenPdf::11                     2                       # What write queue length does an incoming req see
system.mem_ctrls0.wrQLenPdf::12                     2                       # What write queue length does an incoming req see
system.mem_ctrls0.wrQLenPdf::13                     2                       # What write queue length does an incoming req see
system.mem_ctrls0.wrQLenPdf::14                     2                       # What write queue length does an incoming req see
system.mem_ctrls0.wrQLenPdf::15                 91065                       # What write queue length does an incoming req see
system.mem_ctrls0.wrQLenPdf::16                 94945                       # What write queue length does an incoming req see
system.mem_ctrls0.wrQLenPdf::17                126281                       # What write queue length does an incoming req see
system.mem_ctrls0.wrQLenPdf::18                131295                       # What write queue length does an incoming req see
system.mem_ctrls0.wrQLenPdf::19                132094                       # What write queue length does an incoming req see
system.mem_ctrls0.wrQLenPdf::20                132252                       # What write queue length does an incoming req see
system.mem_ctrls0.wrQLenPdf::21                132619                       # What write queue length does an incoming req see
system.mem_ctrls0.wrQLenPdf::22                132988                       # What write queue length does an incoming req see
system.mem_ctrls0.wrQLenPdf::23                132756                       # What write queue length does an incoming req see
system.mem_ctrls0.wrQLenPdf::24                132399                       # What write queue length does an incoming req see
system.mem_ctrls0.wrQLenPdf::25                132267                       # What write queue length does an incoming req see
system.mem_ctrls0.wrQLenPdf::26                132342                       # What write queue length does an incoming req see
system.mem_ctrls0.wrQLenPdf::27                132410                       # What write queue length does an incoming req see
system.mem_ctrls0.wrQLenPdf::28                132421                       # What write queue length does an incoming req see
system.mem_ctrls0.wrQLenPdf::29                132709                       # What write queue length does an incoming req see
system.mem_ctrls0.wrQLenPdf::30                133856                       # What write queue length does an incoming req see
system.mem_ctrls0.wrQLenPdf::31                131655                       # What write queue length does an incoming req see
system.mem_ctrls0.wrQLenPdf::32                131532                       # What write queue length does an incoming req see
system.mem_ctrls0.wrQLenPdf::33                   326                       # What write queue length does an incoming req see
system.mem_ctrls0.wrQLenPdf::34                    27                       # What write queue length does an incoming req see
system.mem_ctrls0.wrQLenPdf::35                     3                       # What write queue length does an incoming req see
system.mem_ctrls0.wrQLenPdf::36                     0                       # What write queue length does an incoming req see
system.mem_ctrls0.wrQLenPdf::37                     0                       # What write queue length does an incoming req see
system.mem_ctrls0.wrQLenPdf::38                     0                       # What write queue length does an incoming req see
system.mem_ctrls0.wrQLenPdf::39                     0                       # What write queue length does an incoming req see
system.mem_ctrls0.wrQLenPdf::40                     0                       # What write queue length does an incoming req see
system.mem_ctrls0.wrQLenPdf::41                     0                       # What write queue length does an incoming req see
system.mem_ctrls0.wrQLenPdf::42                     0                       # What write queue length does an incoming req see
system.mem_ctrls0.wrQLenPdf::43                     0                       # What write queue length does an incoming req see
system.mem_ctrls0.wrQLenPdf::44                     0                       # What write queue length does an incoming req see
system.mem_ctrls0.wrQLenPdf::45                     0                       # What write queue length does an incoming req see
system.mem_ctrls0.wrQLenPdf::46                     0                       # What write queue length does an incoming req see
system.mem_ctrls0.wrQLenPdf::47                     0                       # What write queue length does an incoming req see
system.mem_ctrls0.wrQLenPdf::48                     0                       # What write queue length does an incoming req see
system.mem_ctrls0.wrQLenPdf::49                     0                       # What write queue length does an incoming req see
system.mem_ctrls0.wrQLenPdf::50                     0                       # What write queue length does an incoming req see
system.mem_ctrls0.wrQLenPdf::51                     0                       # What write queue length does an incoming req see
system.mem_ctrls0.wrQLenPdf::52                     0                       # What write queue length does an incoming req see
system.mem_ctrls0.wrQLenPdf::53                     0                       # What write queue length does an incoming req see
system.mem_ctrls0.wrQLenPdf::54                     0                       # What write queue length does an incoming req see
system.mem_ctrls0.wrQLenPdf::55                     0                       # What write queue length does an incoming req see
system.mem_ctrls0.wrQLenPdf::56                     0                       # What write queue length does an incoming req see
system.mem_ctrls0.wrQLenPdf::57                     0                       # What write queue length does an incoming req see
system.mem_ctrls0.wrQLenPdf::58                     0                       # What write queue length does an incoming req see
system.mem_ctrls0.wrQLenPdf::59                     0                       # What write queue length does an incoming req see
system.mem_ctrls0.wrQLenPdf::60                     0                       # What write queue length does an incoming req see
system.mem_ctrls0.wrQLenPdf::61                     0                       # What write queue length does an incoming req see
system.mem_ctrls0.wrQLenPdf::62                     0                       # What write queue length does an incoming req see
system.mem_ctrls0.wrQLenPdf::63                     0                       # What write queue length does an incoming req see
system.mem_ctrls0.bytesPerActivate::samples      3604212                       # Bytes accessed per row activation
system.mem_ctrls0.bytesPerActivate::mean   168.898495                       # Bytes accessed per row activation
system.mem_ctrls0.bytesPerActivate::gmean   121.717721                       # Bytes accessed per row activation
system.mem_ctrls0.bytesPerActivate::stdev   172.393131                       # Bytes accessed per row activation
system.mem_ctrls0.bytesPerActivate::0-127      1638559     45.46%     45.46% # Bytes accessed per row activation
system.mem_ctrls0.bytesPerActivate::128-255      1226631     34.03%     79.50% # Bytes accessed per row activation
system.mem_ctrls0.bytesPerActivate::256-383       250984      6.96%     86.46% # Bytes accessed per row activation
system.mem_ctrls0.bytesPerActivate::384-511       207838      5.77%     92.23% # Bytes accessed per row activation
system.mem_ctrls0.bytesPerActivate::512-639       182464      5.06%     97.29% # Bytes accessed per row activation
system.mem_ctrls0.bytesPerActivate::640-767        31534      0.87%     98.16% # Bytes accessed per row activation
system.mem_ctrls0.bytesPerActivate::768-895        15766      0.44%     98.60% # Bytes accessed per row activation
system.mem_ctrls0.bytesPerActivate::896-1023        12427      0.34%     98.95% # Bytes accessed per row activation
system.mem_ctrls0.bytesPerActivate::1024-1151        38009      1.05%    100.00% # Bytes accessed per row activation
system.mem_ctrls0.bytesPerActivate::total      3604212                       # Bytes accessed per row activation
system.mem_ctrls0.rdPerTurnAround::samples       131213                       # Reads before turning the bus around for writes
system.mem_ctrls0.rdPerTurnAround::mean     54.974690                       # Reads before turning the bus around for writes
system.mem_ctrls0.rdPerTurnAround::gmean    47.590049                       # Reads before turning the bus around for writes
system.mem_ctrls0.rdPerTurnAround::stdev    93.071021                       # Reads before turning the bus around for writes
system.mem_ctrls0.rdPerTurnAround::0-1023       131212    100.00%    100.00% # Reads before turning the bus around for writes
system.mem_ctrls0.rdPerTurnAround::30720-31743            1      0.00%    100.00% # Reads before turning the bus around for writes
system.mem_ctrls0.rdPerTurnAround::total       131213                       # Reads before turning the bus around for writes
system.mem_ctrls0.wrPerTurnAround::samples       131213                       # Writes before turning the bus around for reads
system.mem_ctrls0.wrPerTurnAround::mean     17.515452                       # Writes before turning the bus around for reads
system.mem_ctrls0.wrPerTurnAround::gmean    17.486418                       # Writes before turning the bus around for reads
system.mem_ctrls0.wrPerTurnAround::stdev     0.997879                       # Writes before turning the bus around for reads
system.mem_ctrls0.wrPerTurnAround::16           35860     27.33%     27.33% # Writes before turning the bus around for reads
system.mem_ctrls0.wrPerTurnAround::17            3356      2.56%     29.89% # Writes before turning the bus around for reads
system.mem_ctrls0.wrPerTurnAround::18           81929     62.44%     92.33% # Writes before turning the bus around for reads
system.mem_ctrls0.wrPerTurnAround::19            8782      6.69%     99.02% # Writes before turning the bus around for reads
system.mem_ctrls0.wrPerTurnAround::20            1156      0.88%     99.90% # Writes before turning the bus around for reads
system.mem_ctrls0.wrPerTurnAround::21             117      0.09%     99.99% # Writes before turning the bus around for reads
system.mem_ctrls0.wrPerTurnAround::22              13      0.01%    100.00% # Writes before turning the bus around for reads
system.mem_ctrls0.wrPerTurnAround::total       131213                       # Writes before turning the bus around for reads
system.mem_ctrls0.totQLat                151637767213                       # Total ticks spent queuing
system.mem_ctrls0.totMemAccLat           286889035963                       # Total ticks spent from burst creation until serviced by the DRAM
system.mem_ctrls0.totBusLat               36067005000                       # Total ticks spent in databus transfers
system.mem_ctrls0.avgQLat                    21021.67                       # Average queueing delay per DRAM burst
system.mem_ctrls0.avgBusLat                   5000.00                       # Average bus latency per DRAM burst
system.mem_ctrls0.avgMemAccLat               39771.67                       # Average memory access latency per DRAM burst
system.mem_ctrls0.avgRdBW                      160.86                       # Average DRAM read bandwidth in MiByte/s
system.mem_ctrls0.avgWrBW                       51.25                       # Average achieved write bandwidth in MiByte/s
system.mem_ctrls0.avgRdBWSys                   160.87                       # Average system read bandwidth in MiByte/s
system.mem_ctrls0.avgWrBWSys                    51.25                       # Average system write bandwidth in MiByte/s
system.mem_ctrls0.peakBW                     12800.00                       # Theoretical peak bandwidth in MiByte/s
system.mem_ctrls0.busUtil                        1.66                       # Data bus utilization in percentage
system.mem_ctrls0.busUtilRead                    1.26                       # Data bus utilization in percentage for reads
system.mem_ctrls0.busUtilWrite                   0.40                       # Data bus utilization in percentage for writes
system.mem_ctrls0.avgRdQLen                      1.07                       # Average read queue length when enqueuing
system.mem_ctrls0.avgWrQLen                     24.46                       # Average write queue length when enqueuing
system.mem_ctrls0.readRowHits                 4674576                       # Number of row buffer hits during reads
system.mem_ctrls0.writeRowHits                1232868                       # Number of row buffer hits during writes
system.mem_ctrls0.readRowHitRate                64.80                       # Row buffer hit rate for reads
system.mem_ctrls0.writeRowHitRate               53.64                       # Row buffer hit rate for writes
system.mem_ctrls0.avgGap                    301710.54                       # Average gap between requests
system.mem_ctrls0.pageHitRate                   62.11                       # Row buffer hit rate, read and write combined
system.mem_ctrls0_0.actEnergy             12928547940                       # Energy for activate commands per rank (pJ)
system.mem_ctrls0_0.preEnergy              6871686195                       # Energy for precharge commands per rank (pJ)
system.mem_ctrls0_0.readEnergy            25859502060                       # Energy for read commands per rank (pJ)
system.mem_ctrls0_0.writeEnergy            6043220100                       # Energy for write commands per rank (pJ)
system.mem_ctrls0_0.refreshEnergy        222017802240.000061                       # Energy for refresh commands per rank (pJ)
system.mem_ctrls0_0.actBackEnergy        145123851360                       # Energy for active background per rank (pJ)
system.mem_ctrls0_0.preBackEnergy          7539712320                       # Energy for precharge background per rank (pJ)
system.mem_ctrls0_0.actPowerDownEnergy   871897303440                       # Energy for active power-down per rank (pJ)
system.mem_ctrls0_0.prePowerDownEnergy   158194438560                       # Energy for precharge power-down per rank (pJ)
system.mem_ctrls0_0.selfRefreshEnergy     61417287975                       # Energy for self refresh per rank (pJ)
system.mem_ctrls0_0.totalEnergy          1517942271360                       # Total energy per rank (pJ)
system.mem_ctrls0_0.averagePower           528.906008                       # Core power per rank (mW)
system.mem_ctrls0_0.totalIdleTime        2531982866383                       # Total Idle time Per DRAM Rank
system.mem_ctrls0_0.memoryStateTime::IDLE   7852032389                       # Time in different power states
system.mem_ctrls0_0.memoryStateTime::REF  94046253960                       # Time in different power states
system.mem_ctrls0_0.memoryStateTime::SREF 207948335580                       # Time in different power states
system.mem_ctrls0_0.memoryStateTime::PRE_PDN 411965540187                       # Time in different power states
system.mem_ctrls0_0.memoryStateTime::ACT 236084705904                       # Time in different power states
system.mem_ctrls0_0.memoryStateTime::ACT_PDN 1912068990616                       # Time in different power states
system.mem_ctrls0_1.actEnergy             12805525740                       # Energy for activate commands per rank (pJ)
system.mem_ctrls0_1.preEnergy              6806298345                       # Energy for precharge commands per rank (pJ)
system.mem_ctrls0_1.readEnergy            25644181080                       # Energy for read commands per rank (pJ)
system.mem_ctrls0_1.writeEnergy            5953671000                       # Energy for write commands per rank (pJ)
system.mem_ctrls0_1.refreshEnergy        221212009200.000061                       # Energy for refresh commands per rank (pJ)
system.mem_ctrls0_1.actBackEnergy        145248267540                       # Energy for active background per rank (pJ)
system.mem_ctrls0_1.preBackEnergy          7593439200                       # Energy for precharge background per rank (pJ)
system.mem_ctrls0_1.actPowerDownEnergy   862773098550                       # Energy for active power-down per rank (pJ)
system.mem_ctrls0_1.prePowerDownEnergy   160124325600                       # Energy for precharge power-down per rank (pJ)
system.mem_ctrls0_1.selfRefreshEnergy     65245793550                       # Energy for self refresh per rank (pJ)
system.mem_ctrls0_1.totalEnergy          1513451511105                       # Total energy per rank (pJ)
system.mem_ctrls0_1.averagePower           527.341292                       # Core power per rank (mW)
system.mem_ctrls0_1.totalIdleTime        2531582549597                       # Total Idle time Per DRAM Rank
system.mem_ctrls0_1.memoryStateTime::IDLE   8032909986                       # Time in different power states
system.mem_ctrls0_1.memoryStateTime::REF  93709280000                       # Time in different power states
system.mem_ctrls0_1.memoryStateTime::SREF 222527732461                       # Time in different power states
system.mem_ctrls0_1.memoryStateTime::PRE_PDN 416991180705                       # Time in different power states
system.mem_ctrls0_1.memoryStateTime::ACT 236640990094                       # Time in different power states
system.mem_ctrls0_1.memoryStateTime::ACT_PDN 1892063765390                       # Time in different power states
system.mem_ctrls1.pwrStateResidencyTicks::UNDEFINED 76140119659338                       # Cumulative time (in ticks) in various power states
system.mem_ctrls1.bytes_read::cpu.inst            128                       # Number of bytes read from this memory
system.mem_ctrls1.bytes_read::cpu.data            192                       # Number of bytes read from this memory
system.mem_ctrls1.bytes_read::switch_cpus.inst        43840                       # Number of bytes read from this memory
system.mem_ctrls1.bytes_read::switch_cpus.data    232703360                       # Number of bytes read from this memory
system.mem_ctrls1.bytes_read::switch_cpus_1.inst        26752                       # Number of bytes read from this memory
system.mem_ctrls1.bytes_read::switch_cpus_1.data    228907392                       # Number of bytes read from this memory
system.mem_ctrls1.bytes_read::total         461681664                       # Number of bytes read from this memory
system.mem_ctrls1.bytes_inst_read::cpu.inst          128                       # Number of instructions bytes read from this memory
system.mem_ctrls1.bytes_inst_read::switch_cpus.inst        43840                       # Number of instructions bytes read from this memory
system.mem_ctrls1.bytes_inst_read::switch_cpus_1.inst        26752                       # Number of instructions bytes read from this memory
system.mem_ctrls1.bytes_inst_read::total        70720                       # Number of instructions bytes read from this memory
system.mem_ctrls1.bytes_written::writebacks    147085248                       # Number of bytes written to this memory
system.mem_ctrls1.bytes_written::total      147085248                       # Number of bytes written to this memory
system.mem_ctrls1.num_reads::cpu.inst               2                       # Number of read requests responded to by this memory
system.mem_ctrls1.num_reads::cpu.data               3                       # Number of read requests responded to by this memory
system.mem_ctrls1.num_reads::switch_cpus.inst          685                       # Number of read requests responded to by this memory
system.mem_ctrls1.num_reads::switch_cpus.data      3635990                       # Number of read requests responded to by this memory
system.mem_ctrls1.num_reads::switch_cpus_1.inst          418                       # Number of read requests responded to by this memory
system.mem_ctrls1.num_reads::switch_cpus_1.data      3576678                       # Number of read requests responded to by this memory
system.mem_ctrls1.num_reads::total            7213776                       # Number of read requests responded to by this memory
system.mem_ctrls1.num_writes::writebacks      2298207                       # Number of write requests responded to by this memory
system.mem_ctrls1.num_writes::total           2298207                       # Number of write requests responded to by this memory
system.mem_ctrls1.bw_read::cpu.inst                45                       # Total read bandwidth from this memory (bytes/s)
system.mem_ctrls1.bw_read::cpu.data                67                       # Total read bandwidth from this memory (bytes/s)
system.mem_ctrls1.bw_read::switch_cpus.inst        15275                       # Total read bandwidth from this memory (bytes/s)
system.mem_ctrls1.bw_read::switch_cpus.data     81082275                       # Total read bandwidth from this memory (bytes/s)
system.mem_ctrls1.bw_read::switch_cpus_1.inst         9321                       # Total read bandwidth from this memory (bytes/s)
system.mem_ctrls1.bw_read::switch_cpus_1.data     79759622                       # Total read bandwidth from this memory (bytes/s)
system.mem_ctrls1.bw_read::total            160866605                       # Total read bandwidth from this memory (bytes/s)
system.mem_ctrls1.bw_inst_read::cpu.inst           45                       # Instruction read bandwidth from this memory (bytes/s)
system.mem_ctrls1.bw_inst_read::switch_cpus.inst        15275                       # Instruction read bandwidth from this memory (bytes/s)
system.mem_ctrls1.bw_inst_read::switch_cpus_1.inst         9321                       # Instruction read bandwidth from this memory (bytes/s)
system.mem_ctrls1.bw_inst_read::total           24641                       # Instruction read bandwidth from this memory (bytes/s)
system.mem_ctrls1.bw_write::writebacks       51249825                       # Write bandwidth from this memory (bytes/s)
system.mem_ctrls1.bw_write::total            51249825                       # Write bandwidth from this memory (bytes/s)
system.mem_ctrls1.bw_total::writebacks       51249825                       # Total bandwidth to/from this memory (bytes/s)
system.mem_ctrls1.bw_total::cpu.inst               45                       # Total bandwidth to/from this memory (bytes/s)
system.mem_ctrls1.bw_total::cpu.data               67                       # Total bandwidth to/from this memory (bytes/s)
system.mem_ctrls1.bw_total::switch_cpus.inst        15275                       # Total bandwidth to/from this memory (bytes/s)
system.mem_ctrls1.bw_total::switch_cpus.data     81082275                       # Total bandwidth to/from this memory (bytes/s)
system.mem_ctrls1.bw_total::switch_cpus_1.inst         9321                       # Total bandwidth to/from this memory (bytes/s)
system.mem_ctrls1.bw_total::switch_cpus_1.data     79759622                       # Total bandwidth to/from this memory (bytes/s)
system.mem_ctrls1.bw_total::total           212116430                       # Total bandwidth to/from this memory (bytes/s)
system.mem_ctrls1.readReqs                    7213776                       # Number of read requests accepted
system.mem_ctrls1.writeReqs                   2298207                       # Number of write requests accepted
system.mem_ctrls1.readBursts                  7213776                       # Number of DRAM read bursts, including those serviced by the write queue
system.mem_ctrls1.writeBursts                 2298207                       # Number of DRAM write bursts, including those merged in the write queue
system.mem_ctrls1.bytesReadDRAM             461639744                       # Total number of bytes read from DRAM
system.mem_ctrls1.bytesReadWrQ                  41920                       # Total number of bytes read from write queue
system.mem_ctrls1.bytesWritten              147083712                       # Total number of bytes written to DRAM
system.mem_ctrls1.bytesReadSys              461681664                       # Total read bytes from the system interface side
system.mem_ctrls1.bytesWrittenSys           147085248                       # Total written bytes from the system interface side
system.mem_ctrls1.servicedByWrQ                   655                       # Number of DRAM read bursts serviced by the write queue
system.mem_ctrls1.mergedWrBursts                    0                       # Number of DRAM write bursts merged with an existing one
system.mem_ctrls1.neitherReadNorWriteReqs            0                       # Number of requests that are neither read nor write
system.mem_ctrls1.perBankRdBursts::0           459309                       # Per bank write bursts
system.mem_ctrls1.perBankRdBursts::1           452091                       # Per bank write bursts
system.mem_ctrls1.perBankRdBursts::2           448682                       # Per bank write bursts
system.mem_ctrls1.perBankRdBursts::3           450354                       # Per bank write bursts
system.mem_ctrls1.perBankRdBursts::4           450800                       # Per bank write bursts
system.mem_ctrls1.perBankRdBursts::5           453900                       # Per bank write bursts
system.mem_ctrls1.perBankRdBursts::6           451951                       # Per bank write bursts
system.mem_ctrls1.perBankRdBursts::7           454448                       # Per bank write bursts
system.mem_ctrls1.perBankRdBursts::8           456475                       # Per bank write bursts
system.mem_ctrls1.perBankRdBursts::9           451202                       # Per bank write bursts
system.mem_ctrls1.perBankRdBursts::10          443260                       # Per bank write bursts
system.mem_ctrls1.perBankRdBursts::11          440472                       # Per bank write bursts
system.mem_ctrls1.perBankRdBursts::12          441908                       # Per bank write bursts
system.mem_ctrls1.perBankRdBursts::13          448860                       # Per bank write bursts
system.mem_ctrls1.perBankRdBursts::14          454480                       # Per bank write bursts
system.mem_ctrls1.perBankRdBursts::15          454929                       # Per bank write bursts
system.mem_ctrls1.perBankWrBursts::0           147349                       # Per bank write bursts
system.mem_ctrls1.perBankWrBursts::1           144415                       # Per bank write bursts
system.mem_ctrls1.perBankWrBursts::2           143980                       # Per bank write bursts
system.mem_ctrls1.perBankWrBursts::3           145827                       # Per bank write bursts
system.mem_ctrls1.perBankWrBursts::4           146546                       # Per bank write bursts
system.mem_ctrls1.perBankWrBursts::5           146460                       # Per bank write bursts
system.mem_ctrls1.perBankWrBursts::6           142071                       # Per bank write bursts
system.mem_ctrls1.perBankWrBursts::7           140931                       # Per bank write bursts
system.mem_ctrls1.perBankWrBursts::8           141695                       # Per bank write bursts
system.mem_ctrls1.perBankWrBursts::9           141934                       # Per bank write bursts
system.mem_ctrls1.perBankWrBursts::10          141931                       # Per bank write bursts
system.mem_ctrls1.perBankWrBursts::11          140758                       # Per bank write bursts
system.mem_ctrls1.perBankWrBursts::12          140876                       # Per bank write bursts
system.mem_ctrls1.perBankWrBursts::13          142609                       # Per bank write bursts
system.mem_ctrls1.perBankWrBursts::14          145355                       # Per bank write bursts
system.mem_ctrls1.perBankWrBursts::15          145446                       # Per bank write bursts
system.mem_ctrls1.numRdRetry                        0                       # Number of times read queue was full causing retry
system.mem_ctrls1.numWrRetry                        0                       # Number of times write queue was full causing retry
system.mem_ctrls1.totGap                 2869965702459                       # Total gap between requests
system.mem_ctrls1.readPktSize::0                    0                       # Read request sizes (log2)
system.mem_ctrls1.readPktSize::1                    0                       # Read request sizes (log2)
system.mem_ctrls1.readPktSize::2                    0                       # Read request sizes (log2)
system.mem_ctrls1.readPktSize::3                    0                       # Read request sizes (log2)
system.mem_ctrls1.readPktSize::4                    0                       # Read request sizes (log2)
system.mem_ctrls1.readPktSize::5                    0                       # Read request sizes (log2)
system.mem_ctrls1.readPktSize::6              7213776                       # Read request sizes (log2)
system.mem_ctrls1.writePktSize::0                   0                       # Write request sizes (log2)
system.mem_ctrls1.writePktSize::1                   0                       # Write request sizes (log2)
system.mem_ctrls1.writePktSize::2                   0                       # Write request sizes (log2)
system.mem_ctrls1.writePktSize::3                   0                       # Write request sizes (log2)
system.mem_ctrls1.writePktSize::4                   0                       # Write request sizes (log2)
system.mem_ctrls1.writePktSize::5                   0                       # Write request sizes (log2)
system.mem_ctrls1.writePktSize::6             2298207                       # Write request sizes (log2)
system.mem_ctrls1.rdQLenPdf::0                6229417                       # What read queue length does an incoming req see
system.mem_ctrls1.rdQLenPdf::1                 799628                       # What read queue length does an incoming req see
system.mem_ctrls1.rdQLenPdf::2                 172313                       # What read queue length does an incoming req see
system.mem_ctrls1.rdQLenPdf::3                  11763                       # What read queue length does an incoming req see
system.mem_ctrls1.rdQLenPdf::4                      0                       # What read queue length does an incoming req see
system.mem_ctrls1.rdQLenPdf::5                      0                       # What read queue length does an incoming req see
system.mem_ctrls1.rdQLenPdf::6                      0                       # What read queue length does an incoming req see
system.mem_ctrls1.rdQLenPdf::7                      0                       # What read queue length does an incoming req see
system.mem_ctrls1.rdQLenPdf::8                      0                       # What read queue length does an incoming req see
system.mem_ctrls1.rdQLenPdf::9                      0                       # What read queue length does an incoming req see
system.mem_ctrls1.rdQLenPdf::10                     0                       # What read queue length does an incoming req see
system.mem_ctrls1.rdQLenPdf::11                     0                       # What read queue length does an incoming req see
system.mem_ctrls1.rdQLenPdf::12                     0                       # What read queue length does an incoming req see
system.mem_ctrls1.rdQLenPdf::13                     0                       # What read queue length does an incoming req see
system.mem_ctrls1.rdQLenPdf::14                     0                       # What read queue length does an incoming req see
system.mem_ctrls1.rdQLenPdf::15                     0                       # What read queue length does an incoming req see
system.mem_ctrls1.rdQLenPdf::16                     0                       # What read queue length does an incoming req see
system.mem_ctrls1.rdQLenPdf::17                     0                       # What read queue length does an incoming req see
system.mem_ctrls1.rdQLenPdf::18                     0                       # What read queue length does an incoming req see
system.mem_ctrls1.rdQLenPdf::19                     0                       # What read queue length does an incoming req see
system.mem_ctrls1.rdQLenPdf::20                     0                       # What read queue length does an incoming req see
system.mem_ctrls1.rdQLenPdf::21                     0                       # What read queue length does an incoming req see
system.mem_ctrls1.rdQLenPdf::22                     0                       # What read queue length does an incoming req see
system.mem_ctrls1.rdQLenPdf::23                     0                       # What read queue length does an incoming req see
system.mem_ctrls1.rdQLenPdf::24                     0                       # What read queue length does an incoming req see
system.mem_ctrls1.rdQLenPdf::25                     0                       # What read queue length does an incoming req see
system.mem_ctrls1.rdQLenPdf::26                     0                       # What read queue length does an incoming req see
system.mem_ctrls1.rdQLenPdf::27                     0                       # What read queue length does an incoming req see
system.mem_ctrls1.rdQLenPdf::28                     0                       # What read queue length does an incoming req see
system.mem_ctrls1.rdQLenPdf::29                     0                       # What read queue length does an incoming req see
system.mem_ctrls1.rdQLenPdf::30                     0                       # What read queue length does an incoming req see
system.mem_ctrls1.rdQLenPdf::31                     0                       # What read queue length does an incoming req see
system.mem_ctrls1.wrQLenPdf::0                      2                       # What write queue length does an incoming req see
system.mem_ctrls1.wrQLenPdf::1                      2                       # What write queue length does an incoming req see
system.mem_ctrls1.wrQLenPdf::2                      2                       # What write queue length does an incoming req see
system.mem_ctrls1.wrQLenPdf::3                      2                       # What write queue length does an incoming req see
system.mem_ctrls1.wrQLenPdf::4                      2                       # What write queue length does an incoming req see
system.mem_ctrls1.wrQLenPdf::5                      2                       # What write queue length does an incoming req see
system.mem_ctrls1.wrQLenPdf::6                      2                       # What write queue length does an incoming req see
system.mem_ctrls1.wrQLenPdf::7                      2                       # What write queue length does an incoming req see
system.mem_ctrls1.wrQLenPdf::8                      2                       # What write queue length does an incoming req see
system.mem_ctrls1.wrQLenPdf::9                      2                       # What write queue length does an incoming req see
system.mem_ctrls1.wrQLenPdf::10                     2                       # What write queue length does an incoming req see
system.mem_ctrls1.wrQLenPdf::11                     2                       # What write queue length does an incoming req see
system.mem_ctrls1.wrQLenPdf::12                     2                       # What write queue length does an incoming req see
system.mem_ctrls1.wrQLenPdf::13                     2                       # What write queue length does an incoming req see
system.mem_ctrls1.wrQLenPdf::14                     2                       # What write queue length does an incoming req see
system.mem_ctrls1.wrQLenPdf::15                 91124                       # What write queue length does an incoming req see
system.mem_ctrls1.wrQLenPdf::16                 94991                       # What write queue length does an incoming req see
system.mem_ctrls1.wrQLenPdf::17                126044                       # What write queue length does an incoming req see
system.mem_ctrls1.wrQLenPdf::18                131262                       # What write queue length does an incoming req see
system.mem_ctrls1.wrQLenPdf::19                132069                       # What write queue length does an incoming req see
system.mem_ctrls1.wrQLenPdf::20                132276                       # What write queue length does an incoming req see
system.mem_ctrls1.wrQLenPdf::21                132636                       # What write queue length does an incoming req see
system.mem_ctrls1.wrQLenPdf::22                132974                       # What write queue length does an incoming req see
system.mem_ctrls1.wrQLenPdf::23                132731                       # What write queue length does an incoming req see
system.mem_ctrls1.wrQLenPdf::24                132403                       # What write queue length does an incoming req see
system.mem_ctrls1.wrQLenPdf::25                132249                       # What write queue length does an incoming req see
system.mem_ctrls1.wrQLenPdf::26                132321                       # What write queue length does an incoming req see
system.mem_ctrls1.wrQLenPdf::27                132462                       # What write queue length does an incoming req see
system.mem_ctrls1.wrQLenPdf::28                132383                       # What write queue length does an incoming req see
system.mem_ctrls1.wrQLenPdf::29                132778                       # What write queue length does an incoming req see
system.mem_ctrls1.wrQLenPdf::30                133884                       # What write queue length does an incoming req see
system.mem_ctrls1.wrQLenPdf::31                131636                       # What write queue length does an incoming req see
system.mem_ctrls1.wrQLenPdf::32                131532                       # What write queue length does an incoming req see
system.mem_ctrls1.wrQLenPdf::33                   376                       # What write queue length does an incoming req see
system.mem_ctrls1.wrQLenPdf::34                    40                       # What write queue length does an incoming req see
system.mem_ctrls1.wrQLenPdf::35                     6                       # What write queue length does an incoming req see
system.mem_ctrls1.wrQLenPdf::36                     0                       # What write queue length does an incoming req see
system.mem_ctrls1.wrQLenPdf::37                     0                       # What write queue length does an incoming req see
system.mem_ctrls1.wrQLenPdf::38                     0                       # What write queue length does an incoming req see
system.mem_ctrls1.wrQLenPdf::39                     0                       # What write queue length does an incoming req see
system.mem_ctrls1.wrQLenPdf::40                     0                       # What write queue length does an incoming req see
system.mem_ctrls1.wrQLenPdf::41                     0                       # What write queue length does an incoming req see
system.mem_ctrls1.wrQLenPdf::42                     0                       # What write queue length does an incoming req see
system.mem_ctrls1.wrQLenPdf::43                     0                       # What write queue length does an incoming req see
system.mem_ctrls1.wrQLenPdf::44                     0                       # What write queue length does an incoming req see
system.mem_ctrls1.wrQLenPdf::45                     0                       # What write queue length does an incoming req see
system.mem_ctrls1.wrQLenPdf::46                     0                       # What write queue length does an incoming req see
system.mem_ctrls1.wrQLenPdf::47                     0                       # What write queue length does an incoming req see
system.mem_ctrls1.wrQLenPdf::48                     0                       # What write queue length does an incoming req see
system.mem_ctrls1.wrQLenPdf::49                     0                       # What write queue length does an incoming req see
system.mem_ctrls1.wrQLenPdf::50                     0                       # What write queue length does an incoming req see
system.mem_ctrls1.wrQLenPdf::51                     0                       # What write queue length does an incoming req see
system.mem_ctrls1.wrQLenPdf::52                     0                       # What write queue length does an incoming req see
system.mem_ctrls1.wrQLenPdf::53                     0                       # What write queue length does an incoming req see
system.mem_ctrls1.wrQLenPdf::54                     0                       # What write queue length does an incoming req see
system.mem_ctrls1.wrQLenPdf::55                     0                       # What write queue length does an incoming req see
system.mem_ctrls1.wrQLenPdf::56                     0                       # What write queue length does an incoming req see
system.mem_ctrls1.wrQLenPdf::57                     0                       # What write queue length does an incoming req see
system.mem_ctrls1.wrQLenPdf::58                     0                       # What write queue length does an incoming req see
system.mem_ctrls1.wrQLenPdf::59                     0                       # What write queue length does an incoming req see
system.mem_ctrls1.wrQLenPdf::60                     0                       # What write queue length does an incoming req see
system.mem_ctrls1.wrQLenPdf::61                     0                       # What write queue length does an incoming req see
system.mem_ctrls1.wrQLenPdf::62                     0                       # What write queue length does an incoming req see
system.mem_ctrls1.wrQLenPdf::63                     0                       # What write queue length does an incoming req see
system.mem_ctrls1.bytesPerActivate::samples      3602182                       # Bytes accessed per row activation
system.mem_ctrls1.bytesPerActivate::mean   168.987282                       # Bytes accessed per row activation
system.mem_ctrls1.bytesPerActivate::gmean   121.762236                       # Bytes accessed per row activation
system.mem_ctrls1.bytesPerActivate::stdev   172.500599                       # Bytes accessed per row activation
system.mem_ctrls1.bytesPerActivate::0-127      1636779     45.44%     45.44% # Bytes accessed per row activation
system.mem_ctrls1.bytesPerActivate::128-255      1226418     34.05%     79.49% # Bytes accessed per row activation
system.mem_ctrls1.bytesPerActivate::256-383       250524      6.95%     86.44% # Bytes accessed per row activation
system.mem_ctrls1.bytesPerActivate::384-511       207534      5.76%     92.20% # Bytes accessed per row activation
system.mem_ctrls1.bytesPerActivate::512-639       183236      5.09%     97.29% # Bytes accessed per row activation
system.mem_ctrls1.bytesPerActivate::640-767        31466      0.87%     98.16% # Bytes accessed per row activation
system.mem_ctrls1.bytesPerActivate::768-895        15723      0.44%     98.60% # Bytes accessed per row activation
system.mem_ctrls1.bytesPerActivate::896-1023        12462      0.35%     98.94% # Bytes accessed per row activation
system.mem_ctrls1.bytesPerActivate::1024-1151        38040      1.06%    100.00% # Bytes accessed per row activation
system.mem_ctrls1.bytesPerActivate::total      3602182                       # Bytes accessed per row activation
system.mem_ctrls1.rdPerTurnAround::samples       131195                       # Reads before turning the bus around for writes
system.mem_ctrls1.rdPerTurnAround::mean     54.979847                       # Reads before turning the bus around for writes
system.mem_ctrls1.rdPerTurnAround::gmean    47.578834                       # Reads before turning the bus around for writes
system.mem_ctrls1.rdPerTurnAround::stdev    93.093192                       # Reads before turning the bus around for writes
system.mem_ctrls1.rdPerTurnAround::0-1023       131193    100.00%    100.00% # Reads before turning the bus around for writes
system.mem_ctrls1.rdPerTurnAround::1024-2047            1      0.00%    100.00% # Reads before turning the bus around for writes
system.mem_ctrls1.rdPerTurnAround::30720-31743            1      0.00%    100.00% # Reads before turning the bus around for writes
system.mem_ctrls1.rdPerTurnAround::total       131195                       # Reads before turning the bus around for writes
system.mem_ctrls1.wrPerTurnAround::samples       131195                       # Writes before turning the bus around for reads
system.mem_ctrls1.wrPerTurnAround::mean     17.517306                       # Writes before turning the bus around for reads
system.mem_ctrls1.wrPerTurnAround::gmean    17.488315                       # Writes before turning the bus around for reads
system.mem_ctrls1.wrPerTurnAround::stdev     0.997265                       # Writes before turning the bus around for reads
system.mem_ctrls1.wrPerTurnAround::16           35756     27.25%     27.25% # Writes before turning the bus around for reads
system.mem_ctrls1.wrPerTurnAround::17            3309      2.52%     29.78% # Writes before turning the bus around for reads
system.mem_ctrls1.wrPerTurnAround::18           82026     62.52%     92.30% # Writes before turning the bus around for reads
system.mem_ctrls1.wrPerTurnAround::19            8866      6.76%     99.06% # Writes before turning the bus around for reads
system.mem_ctrls1.wrPerTurnAround::20            1119      0.85%     99.91% # Writes before turning the bus around for reads
system.mem_ctrls1.wrPerTurnAround::21              99      0.08%     99.98% # Writes before turning the bus around for reads
system.mem_ctrls1.wrPerTurnAround::22              13      0.01%     99.99% # Writes before turning the bus around for reads
system.mem_ctrls1.wrPerTurnAround::23               6      0.00%    100.00% # Writes before turning the bus around for reads
system.mem_ctrls1.wrPerTurnAround::29               1      0.00%    100.00% # Writes before turning the bus around for reads
system.mem_ctrls1.wrPerTurnAround::total       131195                       # Writes before turning the bus around for reads
system.mem_ctrls1.totQLat                151237635638                       # Total ticks spent queuing
system.mem_ctrls1.totMemAccLat           286483654388                       # Total ticks spent from burst creation until serviced by the DRAM
system.mem_ctrls1.totBusLat               36065605000                       # Total ticks spent in databus transfers
system.mem_ctrls1.avgQLat                    20967.02                       # Average queueing delay per DRAM burst
system.mem_ctrls1.avgBusLat                   5000.00                       # Average bus latency per DRAM burst
system.mem_ctrls1.avgMemAccLat               39717.02                       # Average memory access latency per DRAM burst
system.mem_ctrls1.avgRdBW                      160.85                       # Average DRAM read bandwidth in MiByte/s
system.mem_ctrls1.avgWrBW                       51.25                       # Average achieved write bandwidth in MiByte/s
system.mem_ctrls1.avgRdBWSys                   160.87                       # Average system read bandwidth in MiByte/s
system.mem_ctrls1.avgWrBWSys                    51.25                       # Average system write bandwidth in MiByte/s
system.mem_ctrls1.peakBW                     12800.00                       # Theoretical peak bandwidth in MiByte/s
system.mem_ctrls1.busUtil                        1.66                       # Data bus utilization in percentage
system.mem_ctrls1.busUtilRead                    1.26                       # Data bus utilization in percentage for reads
system.mem_ctrls1.busUtilWrite                   0.40                       # Data bus utilization in percentage for writes
system.mem_ctrls1.avgRdQLen                      1.07                       # Average read queue length when enqueuing
system.mem_ctrls1.avgWrQLen                     24.46                       # Average write queue length when enqueuing
system.mem_ctrls1.readRowHits                 4675624                       # Number of row buffer hits during reads
system.mem_ctrls1.writeRowHits                1233497                       # Number of row buffer hits during writes
system.mem_ctrls1.readRowHitRate                64.82                       # Row buffer hit rate for reads
system.mem_ctrls1.writeRowHitRate               53.67                       # Row buffer hit rate for writes
system.mem_ctrls1.avgGap                    301721.07                       # Average gap between requests
system.mem_ctrls1.pageHitRate                   62.13                       # Row buffer hit rate, read and write combined
system.mem_ctrls1_0.actEnergy             12919951380                       # Energy for activate commands per rank (pJ)
system.mem_ctrls1_0.preEnergy              6867117015                       # Energy for precharge commands per rank (pJ)
system.mem_ctrls1_0.readEnergy            25857759900                       # Energy for read commands per rank (pJ)
system.mem_ctrls1_0.writeEnergy            6042562380                       # Energy for write commands per rank (pJ)
system.mem_ctrls1_0.refreshEnergy        221992602000.000061                       # Energy for refresh commands per rank (pJ)
system.mem_ctrls1_0.actBackEnergy        145179393870                       # Energy for active background per rank (pJ)
system.mem_ctrls1_0.preBackEnergy          7559040000                       # Energy for precharge background per rank (pJ)
system.mem_ctrls1_0.actPowerDownEnergy   871961896410                       # Energy for active power-down per rank (pJ)
system.mem_ctrls1_0.prePowerDownEnergy   157984233120                       # Energy for precharge power-down per rank (pJ)
system.mem_ctrls1_0.selfRefreshEnergy     61466515455                       # Energy for self refresh per rank (pJ)
system.mem_ctrls1_0.totalEnergy          1517875305810                       # Total energy per rank (pJ)
system.mem_ctrls1_0.averagePower           528.882701                       # Core power per rank (mW)
system.mem_ctrls1_0.totalIdleTime        2531813629192                       # Total Idle time Per DRAM Rank
system.mem_ctrls1_0.memoryStateTime::IDLE   7908443079                       # Time in different power states
system.mem_ctrls1_0.memoryStateTime::REF  94035220000                       # Time in different power states
system.mem_ctrls1_0.memoryStateTime::SREF 208192160544                       # Time in different power states
system.mem_ctrls1_0.memoryStateTime::PRE_PDN 411419831537                       # Time in different power states
system.mem_ctrls1_0.memoryStateTime::ACT 236205807208                       # Time in different power states
system.mem_ctrls1_0.memoryStateTime::ACT_PDN 1912204396268                       # Time in different power states
system.mem_ctrls1_1.actEnergy             12799635240                       # Energy for activate commands per rank (pJ)
system.mem_ctrls1_1.preEnergy              6803163675                       # Energy for precharge commands per rank (pJ)
system.mem_ctrls1_1.readEnergy            25643924040                       # Energy for read commands per rank (pJ)
system.mem_ctrls1_1.writeEnergy            5953952880                       # Energy for write commands per rank (pJ)
system.mem_ctrls1_1.refreshEnergy        221245199760.000061                       # Energy for refresh commands per rank (pJ)
system.mem_ctrls1_1.actBackEnergy        145256909880                       # Energy for active background per rank (pJ)
system.mem_ctrls1_1.preBackEnergy          7556276160                       # Energy for precharge background per rank (pJ)
system.mem_ctrls1_1.actPowerDownEnergy   863641563660                       # Energy for active power-down per rank (pJ)
system.mem_ctrls1_1.prePowerDownEnergy   159742228800                       # Energy for precharge power-down per rank (pJ)
system.mem_ctrls1_1.selfRefreshEnergy     65015514105                       # Energy for self refresh per rank (pJ)
system.mem_ctrls1_1.totalEnergy          1513705163160                       # Total energy per rank (pJ)
system.mem_ctrls1_1.averagePower           527.429668                       # Core power per rank (mW)
system.mem_ctrls1_1.totalIdleTime        2531639950767                       # Total Idle time Per DRAM Rank
system.mem_ctrls1_1.memoryStateTime::IDLE   7949048490                       # Time in different power states
system.mem_ctrls1_1.memoryStateTime::REF  93722798000                       # Time in different power states
system.mem_ctrls1_1.memoryStateTime::SREF 221691857825                       # Time in different power states
system.mem_ctrls1_1.memoryStateTime::PRE_PDN 415990548954                       # Time in different power states
system.mem_ctrls1_1.memoryStateTime::ACT 236653944937                       # Time in different power states
system.mem_ctrls1_1.memoryStateTime::ACT_PDN 1893957660430                       # Time in different power states
system.pwrStateResidencyTicks::UNDEFINED 76140119659338                       # Cumulative time (in ticks) in various power states
system.cpu.branchPred.lookups                       2                       # Number of BP lookups
system.cpu.branchPred.condPredicted                 2                       # Number of conditional branches predicted
system.cpu.branchPred.condIncorrect                 1                       # Number of conditional branches incorrect
system.cpu.branchPred.BTBLookups                    0                       # Number of BTB lookups
system.cpu.branchPred.BTBHits                       0                       # Number of BTB hits
system.cpu.branchPred.BTBCorrect                    0                       # Number of correct BTB predictions (this stat may not work properly.
system.cpu.branchPred.BTBHitPct                   nan                       # BTB Hit Percentage
system.cpu.branchPred.usedRAS                       0                       # Number of times the RAS was used to get a target.
system.cpu.branchPred.RASInCorrect                  0                       # Number of incorrect RAS predictions.
system.cpu.branchPred.indirectLookups               0                       # Number of indirect predictor lookups.
system.cpu.branchPred.indirectHits                  0                       # Number of indirect target hits.
system.cpu.branchPred.indirectMisses                0                       # Number of indirect misses.
system.cpu.branchPredindirectMispredicted            0                       # Number of mispredicted indirect branches.
system.cpu_voltage_domain.voltage                   1                       # Voltage in Volts
system.cpu_clk_domain.clock                       333                       # Clock period in ticks
system.cpu.dtb.fetch_hits                           0                       # ITB hits
system.cpu.dtb.fetch_misses                         0                       # ITB misses
system.cpu.dtb.fetch_acv                            0                       # ITB acv
system.cpu.dtb.fetch_accesses                       0                       # ITB accesses
system.cpu.dtb.read_hits                           28                       # DTB read hits
system.cpu.dtb.read_misses                          0                       # DTB read misses
system.cpu.dtb.read_acv                             0                       # DTB read access violations
system.cpu.dtb.read_accesses                       28                       # DTB read accesses
system.cpu.dtb.write_hits                           3                       # DTB write hits
system.cpu.dtb.write_misses                         0                       # DTB write misses
system.cpu.dtb.write_acv                            0                       # DTB write access violations
system.cpu.dtb.write_accesses                       3                       # DTB write accesses
system.cpu.dtb.data_hits                           31                       # DTB hits
system.cpu.dtb.data_misses                          0                       # DTB misses
system.cpu.dtb.data_acv                             0                       # DTB access violations
system.cpu.dtb.data_accesses                       31                       # DTB accesses
system.cpu.itb.fetch_hits                           7                       # ITB hits
system.cpu.itb.fetch_misses                         0                       # ITB misses
system.cpu.itb.fetch_acv                            0                       # ITB acv
system.cpu.itb.fetch_accesses                       7                       # ITB accesses
system.cpu.itb.read_hits                            0                       # DTB read hits
system.cpu.itb.read_misses                          0                       # DTB read misses
system.cpu.itb.read_acv                             0                       # DTB read access violations
system.cpu.itb.read_accesses                        0                       # DTB read accesses
system.cpu.itb.write_hits                           0                       # DTB write hits
system.cpu.itb.write_misses                         0                       # DTB write misses
system.cpu.itb.write_acv                            0                       # DTB write access violations
system.cpu.itb.write_accesses                       0                       # DTB write accesses
system.cpu.itb.data_hits                            0                       # DTB hits
system.cpu.itb.data_misses                          0                       # DTB misses
system.cpu.itb.data_acv                             0                       # DTB access violations
system.cpu.itb.data_accesses                        0                       # DTB accesses
system.cpu.workload.num_syscalls                    0                       # Number of system calls
system.cpu.pwrStateResidencyTicks::ON    2869965858636                       # Cumulative time (in ticks) in various power states
system.cpu.numCycles                             1461                       # number of cpu cycles simulated
system.cpu.numWorkItemsStarted                      0                       # number of work items this cpu started
system.cpu.numWorkItemsCompleted                    0                       # number of work items this cpu completed
system.cpu.fetch.icacheStallCycles                 55                       # Number of cycles fetch is stalled on an Icache miss
system.cpu.fetch.Insts                             51                       # Number of instructions fetch has processed
system.cpu.fetch.Branches                           2                       # Number of branches that fetch encountered
system.cpu.fetch.Cycles                             7                       # Number of cycles fetch has run and was not squashing or blocked
system.cpu.fetch.SquashCycles                       5                       # Number of cycles fetch has spent squashing
system.cpu.fetch.PendingDrainCycles                10                       # Number of cycles fetch has spent waiting on pipes to drain
system.cpu.fetch.CacheLines                         7                       # Number of cache lines fetched
system.cpu.fetch.IcacheSquashes                     3                       # Number of outstanding Icache misses that were squashed
system.cpu.fetch.rateDist::samples                 74                       # Number of instructions fetched each cycle (Total)
system.cpu.fetch.rateDist::mean              0.689189                       # Number of instructions fetched each cycle (Total)
system.cpu.fetch.rateDist::stdev             2.189174                       # Number of instructions fetched each cycle (Total)
system.cpu.fetch.rateDist::underflows               0      0.00%      0.00% # Number of instructions fetched each cycle (Total)
system.cpu.fetch.rateDist::0                       67     90.54%     90.54% # Number of instructions fetched each cycle (Total)
system.cpu.fetch.rateDist::1                        0      0.00%     90.54% # Number of instructions fetched each cycle (Total)
system.cpu.fetch.rateDist::2                        0      0.00%     90.54% # Number of instructions fetched each cycle (Total)
[...]
system.switch_cpus_1.iq.int_inst_queue_writes    709778706                       # Number of integer instruction queue writes
system.switch_cpus_1.iq.int_inst_queue_wakeup_accesses    696717672                       # Number of integer instruction queue wakeup accesses
system.switch_cpus_1.iq.fp_inst_queue_reads    773229615                       # Number of floating instruction queue reads
system.switch_cpus_1.iq.fp_inst_queue_writes    323088950                       # Number of floating instruction queue writes
system.switch_cpus_1.iq.fp_inst_queue_wakeup_accesses    314265100                       # Number of floating instruction queue wakeup accesses
system.switch_cpus_1.iq.int_alu_accesses    773563688                       # Number of integer alu accesses
system.switch_cpus_1.iq.fp_alu_accesses     417456579                       # Number of floating point alu accesses
system.switch_cpus_1.iew.lsq.thread0.forwLoads      6823698                       # Number of loads that had data forwarded from stores
system.switch_cpus_1.iew.lsq.thread0.invAddrLoads            0                       # Number of loads ignored due to an invalid address
system.switch_cpus_1.iew.lsq.thread0.squashedLoads      5593832                       # Number of loads squashed
system.switch_cpus_1.iew.lsq.thread0.ignoredResponses         3368                       # Number of memory responses ignored because the instruction is squashed
system.switch_cpus_1.iew.lsq.thread0.memOrderViolation         2046                       # Number of memory ordering violations
system.switch_cpus_1.iew.lsq.thread0.squashedStores      1017498                       # Number of stores squashed
system.switch_cpus_1.iew.lsq.thread0.invAddrSwpfs            0                       # Number of software prefetches ignored due to an invalid address
system.switch_cpus_1.iew.lsq.thread0.blockedLoads            0                       # Number of blocked loads due to partial load-store forwarding
system.switch_cpus_1.iew.lsq.thread0.rescheduledLoads            0                       # Number of loads that were rescheduled
system.switch_cpus_1.iew.lsq.thread0.cacheBlocked     68680903                       # Number of times an access to memory failed due to the cache being blocked
system.switch_cpus_1.iew.iewIdleCycles              0                       # Number of cycles IEW is idle
system.switch_cpus_1.iew.iewSquashCycles       378842                       # Number of cycles IEW is squashing
system.switch_cpus_1.iew.iewBlockCycles     379632856                       # Number of cycles IEW is blocking
system.switch_cpus_1.iew.iewUnblockCycles    242999802                       # Number of cycles IEW is unblocking
system.switch_cpus_1.iew.iewDispatchedInsts   1016818001                       # Number of instructions dispatched to IQ
system.switch_cpus_1.iew.iewDispSquashedInsts       308647                       # Number of squashed instructions skipped by dispatch
system.switch_cpus_1.iew.iewDispLoadInsts    331864258                       # Number of dispatched load instructions
system.switch_cpus_1.iew.iewDispStoreInsts     53457099                       # Number of dispatched store instructions
system.switch_cpus_1.iew.iewDispNonSpecInsts          387                       # Number of dispatched non-speculative instructions
system.switch_cpus_1.iew.iewIQFullEvents      1754295                       # Number of times the IQ has become full, causing a stall
system.switch_cpus_1.iew.iewLSQFullEvents    239686104                       # Number of times the LSQ has become full, causing a stall
system.switch_cpus_1.iew.memOrderViolationEvents         2046                       # Number of memory order violations
system.switch_cpus_1.iew.predictedTakenIncorrect       252209                       # Number of branches that were predicted taken incorrectly
system.switch_cpus_1.iew.predictedNotTakenIncorrect         2624                       # Number of branches that were predicted not taken incorrectly
system.switch_cpus_1.iew.branchMispredicts       254833                       # Number of branch mispredicts detected at execute
system.switch_cpus_1.iew.iewExecutedInsts   1079202827                       # Number of executed instructions
system.switch_cpus_1.iew.iewExecLoadInsts    397921993                       # Number of load instructions executed
system.switch_cpus_1.iew.iewExecSquashedInsts       587111                       # Number of squashed instructions skipped in execute
system.switch_cpus_1.iew.exec_swp                   0                       # number of swp insts executed
system.switch_cpus_1.iew.exec_nop              385165                       # number of nop insts executed
system.switch_cpus_1.iew.exec_refs          450681109                       # number of memory reference insts executed
system.switch_cpus_1.iew.exec_branches       28872505                       # Number of branches executed
system.switch_cpus_1.iew.exec_stores         52759116                       # Number of stores executed
system.switch_cpus_1.iew.exec_rate           0.584215                       # Inst execution rate
system.switch_cpus_1.iew.wb_sent           1011831136                       # cumulative count of insts sent to commit
system.switch_cpus_1.iew.wb_count          1010982772                       # cumulative count of insts written-back
system.switch_cpus_1.iew.wb_producers       683318298                       # num instructions producing a value
system.switch_cpus_1.iew.wb_consumers       752603459                       # num instructions consuming a value
system.switch_cpus_1.iew.wb_rate             0.547285                       # insts written-back per cycle
system.switch_cpus_1.iew.wb_fanout           0.907939                       # average fanout of values written-back
system.switch_cpus_1.commit.commitSquashedInsts     15641650                       # The number of squashed insts skipped by commit
system.switch_cpus_1.commit.commitNonSpecStalls          600                       # The number of times commit has been forced to stall to communicate backwards
system.switch_cpus_1.commit.branchMispredicts       246703                       # The number of times a branch was mispredicted
system.switch_cpus_1.commit.committed_per_cycle::samples   1844923002                       # Number of insts commited each cycle
system.switch_cpus_1.commit.committed_per_cycle::mean     0.542214                       # Number of insts commited each cycle
system.switch_cpus_1.commit.committed_per_cycle::stdev     1.879547                       # Number of insts commited each cycle
system.switch_cpus_1.commit.committed_per_cycle::underflows            0      0.00%      0.00% # Number of insts commited each cycle
system.switch_cpus_1.commit.committed_per_cycle::0   1660261375     89.99%     89.99% # Number of insts commited each cycle
system.switch_cpus_1.commit.committed_per_cycle::1     41244996      2.24%     92.23% # Number of insts commited each cycle
system.switch_cpus_1.commit.committed_per_cycle::2      9800734      0.53%     92.76% # Number of insts commited each cycle
system.switch_cpus_1.commit.committed_per_cycle::3     10209945      0.55%     93.31% # Number of insts commited each cycle
system.switch_cpus_1.commit.committed_per_cycle::4      9496238      0.51%     93.83% # Number of insts commited each cycle
system.switch_cpus_1.commit.committed_per_cycle::5      6653813      0.36%     94.19% # Number of insts commited each cycle
system.switch_cpus_1.commit.committed_per_cycle::6      5738116      0.31%     94.50% # Number of insts commited each cycle
system.switch_cpus_1.commit.committed_per_cycle::7      8958652      0.49%     94.98% # Number of insts commited each cycle
system.switch_cpus_1.commit.committed_per_cycle::8     92559133      5.02%    100.00% # Number of insts commited each cycle
system.switch_cpus_1.commit.committed_per_cycle::overflows            0      0.00%    100.00% # Number of insts commited each cycle
system.switch_cpus_1.commit.committed_per_cycle::min_value            0                       # Number of insts commited each cycle
system.switch_cpus_1.commit.committed_per_cycle::max_value            8                       # Number of insts commited each cycle
system.switch_cpus_1.commit.committed_per_cycle::total   1844923002                       # Number of insts commited each cycle
system.switch_cpus_1.commit.committedInsts   1000342640                       # Number of instructions committed
system.switch_cpus_1.commit.committedOps   1000342640                       # Number of ops (including micro ops) committed
system.switch_cpus_1.commit.swp_count               0                       # Number of s/w prefetches committed
system.switch_cpus_1.commit.refs            378710012                       # Number of memory references committed
system.switch_cpus_1.commit.loads           326270412                       # Number of loads committed
system.switch_cpus_1.commit.membars               300                       # Number of memory barriers committed
system.switch_cpus_1.commit.branches         28253899                       # Number of branches committed
system.switch_cpus_1.commit.fp_insts        312284005                       # Number of committed floating point instructions.
system.switch_cpus_1.commit.int_insts       845535111                       # Number of committed integer instructions.
system.switch_cpus_1.commit.function_calls          310                       # Number of function calls committed.
system.switch_cpus_1.commit.op_class_0::No_OpClass       342637      0.03%      0.03% # Class of committed instruction
system.switch_cpus_1.commit.op_class_0::IntAlu    359442994     35.93%     35.97% # Class of committed instruction
system.switch_cpus_1.commit.op_class_0::IntMult    107489742     10.75%     46.71% # Class of committed instruction
system.switch_cpus_1.commit.op_class_0::IntDiv            0      0.00%     46.71% # Class of committed instruction
system.switch_cpus_1.commit.op_class_0::FloatAdd     75768481      7.57%     54.29% # Class of committed instruction
system.switch_cpus_1.commit.op_class_0::FloatCmp            0      0.00%     54.29% # Class of committed instruction
system.switch_cpus_1.commit.op_class_0::FloatCvt        12222      0.00%     54.29% # Class of committed instruction
system.switch_cpus_1.commit.op_class_0::FloatMult     70713607      7.07%     61.36% # Class of committed instruction
system.switch_cpus_1.commit.op_class_0::FloatMultAcc            0      0.00%     61.36% # Class of committed instruction
system.switch_cpus_1.commit.op_class_0::FloatDiv      7026845      0.70%     62.06% # Class of committed instruction
system.switch_cpus_1.commit.op_class_0::FloatMisc            0      0.00%     62.06% # Class of committed instruction
system.switch_cpus_1.commit.op_class_0::FloatSqrt       835800      0.08%     62.14% # Class of committed instruction
system.switch_cpus_1.commit.op_class_0::SimdAdd            0      0.00%     62.14% # Class of committed instruction
system.switch_cpus_1.commit.op_class_0::SimdAddAcc            0      0.00%     62.14% # Class of committed instruction
system.switch_cpus_1.commit.op_class_0::SimdAlu            0      0.00%     62.14% # Class of committed instruction
system.switch_cpus_1.commit.op_class_0::SimdCmp            0      0.00%     62.14% # Class of committed instruction
system.switch_cpus_1.commit.op_class_0::SimdCvt            0      0.00%     62.14% # Class of committed instruction
system.switch_cpus_1.commit.op_class_0::SimdMisc            0      0.00%     62.14% # Class of committed instruction
system.switch_cpus_1.commit.op_class_0::SimdMult            0      0.00%     62.14% # Class of committed instruction
system.switch_cpus_1.commit.op_class_0::SimdMultAcc            0      0.00%     62.14% # Class of committed instruction
system.switch_cpus_1.commit.op_class_0::SimdShift            0      0.00%     62.14% # Class of committed instruction
system.switch_cpus_1.commit.op_class_0::SimdShiftAcc            0      0.00%     62.14% # Class of committed instruction
system.switch_cpus_1.commit.op_class_0::SimdSqrt            0      0.00%     62.14% # Class of committed instruction
system.switch_cpus_1.commit.op_class_0::SimdFloatAdd            0      0.00%     62.14% # Class of committed instruction
system.switch_cpus_1.commit.op_class_0::SimdFloatAlu            0      0.00%     62.14% # Class of committed instruction
system.switch_cpus_1.commit.op_class_0::SimdFloatCmp            0      0.00%     62.14% # Class of committed instruction
system.switch_cpus_1.commit.op_class_0::SimdFloatCvt            0      0.00%     62.14% # Class of committed instruction
system.switch_cpus_1.commit.op_class_0::SimdFloatDiv            0      0.00%     62.14% # Class of committed instruction
system.switch_cpus_1.commit.op_class_0::SimdFloatMisc            0      0.00%     62.14% # Class of committed instruction
system.switch_cpus_1.commit.op_class_0::SimdFloatMult            0      0.00%     62.14% # Class of committed instruction
system.switch_cpus_1.commit.op_class_0::SimdFloatMultAcc            0      0.00%     62.14% # Class of committed instruction
system.switch_cpus_1.commit.op_class_0::SimdFloatSqrt            0      0.00%     62.14% # Class of committed instruction
system.switch_cpus_1.commit.op_class_0::MemRead    206322529     20.63%     82.77% # Class of committed instruction
system.switch_cpus_1.commit.op_class_0::MemWrite     14460733      1.45%     84.21% # Class of committed instruction
system.switch_cpus_1.commit.op_class_0::FloatMemRead    119948183     11.99%     96.20% # Class of committed instruction
system.switch_cpus_1.commit.op_class_0::FloatMemWrite     37978867      3.80%    100.00% # Class of committed instruction
system.switch_cpus_1.commit.op_class_0::IprAccess            0      0.00%    100.00% # Class of committed instruction
system.switch_cpus_1.commit.op_class_0::InstPrefetch            0      0.00%    100.00% # Class of committed instruction
system.switch_cpus_1.commit.op_class_0::total   1000342640                       # Class of committed instruction
system.switch_cpus_1.commit.bw_lim_events     92559133                       # number cycles where commit BW limit reached
system.switch_cpus_1.rob.rob_reads         2766652556                       # The number of ROB reads
system.switch_cpus_1.rob.rob_writes        2034081575                       # The number of ROB writes
system.switch_cpus_1.timesIdled                  1110                       # Number of times that the entire CPU went into an idle state and unscheduled itself
system.switch_cpus_1.idleCycles                234493                       # Total number of cycles that the CPU has spent unscheduled due to idling
system.switch_cpus_1.committedInsts        1000000003                       # Number of Instructions Simulated
system.switch_cpus_1.committedOps          1000000003                       # Number of Ops (including micro ops) Simulated
system.switch_cpus_1.cpi                     1.847270                       # CPI: Cycles Per Instruction
system.switch_cpus_1.cpi_total               1.847270                       # CPI: Total CPI of All Threads
system.switch_cpus_1.ipc                     0.541339                       # IPC: Instructions Per Cycle
system.switch_cpus_1.ipc_total               0.541339                       # IPC: Total IPC of All Threads
system.switch_cpus_1.int_regfile_reads     1308147597                       # number of integer regfile reads
system.switch_cpus_1.int_regfile_writes     653410243                       # number of integer regfile writes
system.switch_cpus_1.fp_regfile_reads       347489372                       # number of floating regfile reads
system.switch_cpus_1.fp_regfile_writes      276225790                       # number of floating regfile writes
system.switch_cpus_1.misc_regfile_reads           675                       # number of misc regfile reads
system.switch_cpus_1.misc_regfile_writes          600                       # number of misc regfile writes
system.tol3bus.snoop_filter.tot_requests     36162572                       # Total number of requests made to the snoop filter.
system.tol3bus.snoop_filter.hit_single_requests     18078968                       # Number of requests hitting in the snoop filter with a single holder of the requested data.
system.tol3bus.snoop_filter.hit_multi_requests            0                       # Number of requests hitting in the snoop filter with multiple (>1) holders of the requested data.
system.tol3bus.snoop_filter.tot_snoops           3415                       # Total number of snoops made to the snoop filter.
system.tol3bus.snoop_filter.hit_single_snoops         3415                       # Number of snoops hitting in the snoop filter with a single holder of the requested data.
system.tol3bus.snoop_filter.hit_multi_snoops            0                       # Number of snoops hitting in the snoop filter with multiple (>1) holders of the requested data.
system.tol3bus.pwrStateResidencyTicks::UNDEFINED 76140119659338                       # Cumulative time (in ticks) in various power states
system.tol3bus.trans_dist::ReadResp          13988040                       # Transaction distribution
system.tol3bus.trans_dist::WritebackDirty     10178440                       # Transaction distribution
system.tol3bus.trans_dist::CleanEvict        22262655                       # Transaction distribution
system.tol3bus.trans_dist::ReadExReq          4095564                       # Transaction distribution
system.tol3bus.trans_dist::ReadExResp         4095564                       # Transaction distribution
system.tol3bus.trans_dist::ReadSharedReq     13988040                       # Transaction distribution
system.tol3bus.pkt_count_system.cpu.l2.mem_side::system.l3.cpu_side     54246176                       # Packet count per connected master and slave (bytes)
system.tol3bus.pkt_size_system.cpu.l2.mem_side::system.l3.cpu_side   1514596160                       # Cumulative packet size per connected master and slave (bytes)
system.tol3bus.snoops                        14362127                       # Total snoops (count)
system.tol3bus.snoopTraffic                 294174656                       # Total snoop traffic (bytes)
system.tol3bus.snoop_fanout::samples         32445731                       # Request fanout histogram
system.tol3bus.snoop_fanout::mean            0.000105                       # Request fanout histogram
system.tol3bus.snoop_fanout::stdev           0.010259                       # Request fanout histogram
system.tol3bus.snoop_fanout::underflows             0      0.00%      0.00% # Request fanout histogram
system.tol3bus.snoop_fanout::0               32442316     99.99%     99.99% # Request fanout histogram
system.tol3bus.snoop_fanout::1                   3415      0.01%    100.00% # Request fanout histogram
system.tol3bus.snoop_fanout::overflows              0      0.00%    100.00% # Request fanout histogram
system.tol3bus.snoop_fanout::min_value              0                       # Request fanout histogram
system.tol3bus.snoop_fanout::max_value              1                       # Request fanout histogram
system.tol3bus.snoop_fanout::total           32445731                       # Request fanout histogram
system.tol3bus.reqLayer0.occupancy        13900929489                       # Layer occupancy (ticks)
system.tol3bus.reqLayer0.utilization              0.5                       # Layer utilization (%)
system.tol3bus.respLayer0.occupancy       12043680264                       # Layer occupancy (ticks)
system.tol3bus.respLayer0.utilization             0.4                       # Layer utilization (%)

---------- End Simulation Statistics   ----------
