
---------- Begin Simulation Statistics ----------
sim_seconds                                  1.114858                       # Number of seconds simulated
sim_ticks                                1114858424268                       # Number of ticks simulated
final_tick                               18768199815198                       # Number of ticks from beginning of simulation (restored from checkpoints and never reset)
sim_freq                                 1000000000000                       # Frequency of simulated ticks
host_inst_rate                                 557785                       # Simulator instruction rate (inst/s)
host_op_rate                                   557785                       # Simulator op (including micro ops) rate (op/s)
host_tick_rate                              518209107                       # Simulator tick rate (ticks/s)
host_mem_usage                                2396212                       # Number of bytes of host memory used
host_seconds                                  2151.37                       # Real time elapsed on the host
sim_insts                                  1200000011                       # Number of instructions simulated
sim_ops                                    1200000011                       # Number of ops (including micro ops) simulated
system.voltage_domain.voltage                       1                       # Voltage in Volts
system.clk_domain.clock                          1000                       # Clock period in ticks
system.mem_ctrls0.pwrStateResidencyTicks::UNDEFINED 18768199815198                       # Cumulative time (in ticks) in various power states
system.mem_ctrls0.bytes_read::cpu.inst            192                       # Number of bytes read from this memory
system.mem_ctrls0.bytes_read::switch_cpus.inst       132224                       # Number of bytes read from this memory
system.mem_ctrls0.bytes_read::switch_cpus.data      8023872                       # Number of bytes read from this memory
system.mem_ctrls0.bytes_read::switch_cpus_1.inst        17408                       # Number of bytes read from this memory
system.mem_ctrls0.bytes_read::switch_cpus_1.data      1343040                       # Number of bytes read from this memory
system.mem_ctrls0.bytes_read::total           9516736                       # Number of bytes read from this memory
system.mem_ctrls0.bytes_inst_read::cpu.inst          192                       # Number of instructions bytes read from this memory
system.mem_ctrls0.bytes_inst_read::switch_cpus.inst       132224                       # Number of instructions bytes read from this memory
system.mem_ctrls0.bytes_inst_read::switch_cpus_1.inst        17408                       # Number of instructions bytes read from this memory
system.mem_ctrls0.bytes_inst_read::total       149824                       # Number of instructions bytes read from this memory
system.mem_ctrls0.bytes_written::writebacks      5870336                       # Number of bytes written to this memory
system.mem_ctrls0.bytes_written::total        5870336                       # Number of bytes written to this memory
system.mem_ctrls0.num_reads::cpu.inst               3                       # Number of read requests responded to by this memory
system.mem_ctrls0.num_reads::switch_cpus.inst         2066                       # Number of read requests responded to by this memory
system.mem_ctrls0.num_reads::switch_cpus.data       125373                       # Number of read requests responded to by this memory
system.mem_ctrls0.num_reads::switch_cpus_1.inst          272                       # Number of read requests responded to by this memory
system.mem_ctrls0.num_reads::switch_cpus_1.data        20985                       # Number of read requests responded to by this memory
system.mem_ctrls0.num_reads::total             148699                       # Number of read requests responded to by this memory
system.mem_ctrls0.num_writes::writebacks        91724                       # Number of write requests responded to by this memory
system.mem_ctrls0.num_writes::total             91724                       # Number of write requests responded to by this memory
system.mem_ctrls0.bw_read::cpu.inst               172                       # Total read bandwidth from this memory (bytes/s)
system.mem_ctrls0.bw_read::switch_cpus.inst       118602                       # Total read bandwidth from this memory (bytes/s)
system.mem_ctrls0.bw_read::switch_cpus.data      7197212                       # Total read bandwidth from this memory (bytes/s)
system.mem_ctrls0.bw_read::switch_cpus_1.inst        15615                       # Total read bandwidth from this memory (bytes/s)
system.mem_ctrls0.bw_read::switch_cpus_1.data      1204673                       # Total read bandwidth from this memory (bytes/s)
system.mem_ctrls0.bw_read::total              8536273                       # Total read bandwidth from this memory (bytes/s)
system.mem_ctrls0.bw_inst_read::cpu.inst          172                       # Instruction read bandwidth from this memory (bytes/s)
system.mem_ctrls0.bw_inst_read::switch_cpus.inst       118602                       # Instruction read bandwidth from this memory (bytes/s)
system.mem_ctrls0.bw_inst_read::switch_cpus_1.inst        15615                       # Instruction read bandwidth from this memory (bytes/s)
system.mem_ctrls0.bw_inst_read::total          134388                       # Instruction read bandwidth from this memory (bytes/s)
system.mem_ctrls0.bw_write::writebacks        5265544                       # Write bandwidth from this memory (bytes/s)
system.mem_ctrls0.bw_write::total             5265544                       # Write bandwidth from this memory (bytes/s)
system.mem_ctrls0.bw_total::writebacks        5265544                       # Total bandwidth to/from this memory (bytes/s)
system.mem_ctrls0.bw_total::cpu.inst              172                       # Total bandwidth to/from this memory (bytes/s)
system.mem_ctrls0.bw_total::switch_cpus.inst       118602                       # Total bandwidth to/from this memory (bytes/s)
system.mem_ctrls0.bw_total::switch_cpus.data      7197212                       # Total bandwidth to/from this memory (bytes/s)
system.mem_ctrls0.bw_total::switch_cpus_1.inst        15615                       # Total bandwidth to/from this memory (bytes/s)
system.mem_ctrls0.bw_total::switch_cpus_1.data      1204673                       # Total bandwidth to/from this memory (bytes/s)
system.mem_ctrls0.bw_total::total            13801817                       # Total bandwidth to/from this memory (bytes/s)
system.mem_ctrls0.readReqs                     148699                       # Number of read requests accepted
system.mem_ctrls0.writeReqs                     91724                       # Number of write requests accepted
system.mem_ctrls0.readBursts                   148699                       # Number of DRAM read bursts, including those serviced by the write queue
system.mem_ctrls0.writeBursts                   91724                       # Number of DRAM write bursts, including those merged in the write queue
system.mem_ctrls0.bytesReadDRAM               9511936                       # Total number of bytes read from DRAM
system.mem_ctrls0.bytesReadWrQ                   4800                       # Total number of bytes read from write queue
system.mem_ctrls0.bytesWritten                5868928                       # Total number of bytes written to DRAM
system.mem_ctrls0.bytesReadSys                9516736                       # Total read bytes from the system interface side
system.mem_ctrls0.bytesWrittenSys             5870336                       # Total written bytes from the system interface side
system.mem_ctrls0.servicedByWrQ                    75                       # Number of DRAM read bursts serviced by the write queue
system.mem_ctrls0.mergedWrBursts                    0                       # Number of DRAM write bursts merged with an existing one
system.mem_ctrls0.neitherReadNorWriteReqs            0                       # Number of requests that are neither read nor write
system.mem_ctrls0.perBankRdBursts::0             9042                       # Per bank write bursts
system.mem_ctrls0.perBankRdBursts::1             9288                       # Per bank write bursts
system.mem_ctrls0.perBankRdBursts::2             9391                       # Per bank write bursts
system.mem_ctrls0.perBankRdBursts::3             9890                       # Per bank write bursts
system.mem_ctrls0.perBankRdBursts::4             9857                       # Per bank write bursts
system.mem_ctrls0.perBankRdBursts::5             9390                       # Per bank write bursts
system.mem_ctrls0.perBankRdBursts::6             8812                       # Per bank write bursts
system.mem_ctrls0.perBankRdBursts::7             8926                       # Per bank write bursts
system.mem_ctrls0.perBankRdBursts::8             9504                       # Per bank write bursts
system.mem_ctrls0.perBankRdBursts::9             9695                       # Per bank write bursts
system.mem_ctrls0.perBankRdBursts::10            9113                       # Per bank write bursts
system.mem_ctrls0.perBankRdBursts::11            9468                       # Per bank write bursts
system.mem_ctrls0.perBankRdBursts::12            9284                       # Per bank write bursts
system.mem_ctrls0.perBankRdBursts::13            9166                       # Per bank write bursts
system.mem_ctrls0.perBankRdBursts::14            9035                       # Per bank write bursts
system.mem_ctrls0.perBankRdBursts::15            8763                       # Per bank write bursts
system.mem_ctrls0.perBankWrBursts::0             5815                       # Per bank write bursts
system.mem_ctrls0.perBankWrBursts::1             5999                       # Per bank write bursts
system.mem_ctrls0.perBankWrBursts::2             5808                       # Per bank write bursts
system.mem_ctrls0.perBankWrBursts::3             6059                       # Per bank write bursts
system.mem_ctrls0.perBankWrBursts::4             5984                       # Per bank write bursts
system.mem_ctrls0.perBankWrBursts::5             5716                       # Per bank write bursts
system.mem_ctrls0.perBankWrBursts::6             5311                       # Per bank write bursts
system.mem_ctrls0.perBankWrBursts::7             5321                       # Per bank write bursts
system.mem_ctrls0.perBankWrBursts::8             5506                       # Per bank write bursts
system.mem_ctrls0.perBankWrBursts::9             5547                       # Per bank write bursts
system.mem_ctrls0.perBankWrBursts::10            5810                       # Per bank write bursts
system.mem_ctrls0.perBankWrBursts::11            6169                       # Per bank write bursts
system.mem_ctrls0.perBankWrBursts::12            5912                       # Per bank write bursts
system.mem_ctrls0.perBankWrBursts::13            5644                       # Per bank write bursts
system.mem_ctrls0.perBankWrBursts::14            5553                       # Per bank write bursts
system.mem_ctrls0.perBankWrBursts::15            5548                       # Per bank write bursts
system.mem_ctrls0.numRdRetry                        0                       # Number of times read queue was full causing retry
system.mem_ctrls0.numWrRetry                        0                       # Number of times write queue was full causing retry
system.mem_ctrls0.totGap                 1114857481545                       # Total gap between requests
system.mem_ctrls0.readPktSize::0                    0                       # Read request sizes (log2)
system.mem_ctrls0.readPktSize::1                    0                       # Read request sizes (log2)
system.mem_ctrls0.readPktSize::2                    0                       # Read request sizes (log2)
system.mem_ctrls0.readPktSize::3                    0                       # Read request sizes (log2)
system.mem_ctrls0.readPktSize::4                    0                       # Read request sizes (log2)
system.mem_ctrls0.readPktSize::5                    0                       # Read request sizes (log2)
system.mem_ctrls0.readPktSize::6               148699                       # Read request sizes (log2)
system.mem_ctrls0.writePktSize::0                   0                       # Write request sizes (log2)
system.mem_ctrls0.writePktSize::1                   0                       # Write request sizes (log2)
system.mem_ctrls0.writePktSize::2                   0                       # Write request sizes (log2)
system.mem_ctrls0.writePktSize::3                   0                       # Write request sizes (log2)
system.mem_ctrls0.writePktSize::4                   0                       # Write request sizes (log2)
system.mem_ctrls0.writePktSize::5                   0                       # Write request sizes (log2)
system.mem_ctrls0.writePktSize::6               91724                       # Write request sizes (log2)
system.mem_ctrls0.rdQLenPdf::0                 146950                       # What read queue length does an incoming req see
system.mem_ctrls0.rdQLenPdf::1                   1631                       # What read queue length does an incoming req see
system.mem_ctrls0.rdQLenPdf::2                     42                       # What read queue length does an incoming req see
system.mem_ctrls0.rdQLenPdf::3                      1                       # What read queue length does an incoming req see
system.mem_ctrls0.rdQLenPdf::4                      0                       # What read queue length does an incoming req see
system.mem_ctrls0.rdQLenPdf::5                      0                       # What read queue length does an incoming req see
system.mem_ctrls0.rdQLenPdf::6                      0                       # What read queue length does an incoming req see
system.mem_ctrls0.rdQLenPdf::7                      0                       # What read queue length does an incoming req see
system.mem_ctrls0.rdQLenPdf::8                      0                       # What read queue length does an incoming req see
system.mem_ctrls0.rdQLenPdf::9                      0                       # What read queue length does an incoming req see
system.mem_ctrls0.rdQLenPdf::10                     0                       # What read queue length does an incoming req see
system.mem_ctrls0.rdQLenPdf::11                     0                       # What read queue length does an incoming req see
system.mem_ctrls0.rdQLenPdf::12                     0                       # What read queue length does an incoming req see
system.mem_ctrls0.rdQLenPdf::13                     0                       # What read queue length does an incoming req see
system.mem_ctrls0.rdQLenPdf::14                     0                       # What read queue length does an incoming req see
system.mem_ctrls0.rdQLenPdf::15                     0                       # What read queue length does an incoming req see
system.mem_ctrls0.rdQLenPdf::16                     0                       # What read queue length does an incoming req see
system.mem_ctrls0.rdQLenPdf::17                     0                       # What read queue length does an incoming req see
system.mem_ctrls0.rdQLenPdf::18                     0                       # What read queue length does an incoming req see
system.mem_ctrls0.rdQLenPdf::19                     0                       # What read queue length does an incoming req see
system.mem_ctrls0.rdQLenPdf::20                     0                       # What read queue length does an incoming req see
system.mem_ctrls0.rdQLenPdf::21                     0                       # What read queue length does an incoming req see
system.mem_ctrls0.rdQLenPdf::22                     0                       # What read queue length does an incoming req see
system.mem_ctrls0.rdQLenPdf::23                     0                       # What read queue length does an incoming req see
system.mem_ctrls0.rdQLenPdf::24                     0                       # What read queue length does an incoming req see
system.mem_ctrls0.rdQLenPdf::25                     0                       # What read queue length does an incoming req see
system.mem_ctrls0.rdQLenPdf::26                     0                       # What read queue length does an incoming req see
system.mem_ctrls0.rdQLenPdf::27                     0                       # What read queue length does an incoming req see
system.mem_ctrls0.rdQLenPdf::28                     0                       # What read queue length does an incoming req see
system.mem_ctrls0.rdQLenPdf::29                     0                       # What read queue length does an incoming req see
system.mem_ctrls0.rdQLenPdf::30                     0                       # What read queue length does an incoming req see
system.mem_ctrls0.rdQLenPdf::31                     0                       # What read queue length does an incoming req see
system.mem_ctrls0.wrQLenPdf::0                      2                       # What write queue length does an incoming req see
system.mem_ctrls0.wrQLenPdf::1                      2                       # What write queue length does an incoming req see
system.mem_ctrls0.wrQLenPdf::2                      2                       # What write queue length does an incoming req see
system.mem_ctrls0.wrQLenPdf::3                      2                       # What write queue length does an incoming req see
system.mem_ctrls0.wrQLenPdf::4                      2                       # What write queue length does an incoming req see
system.mem_ctrls0.wrQLenPdf::5                      2                       # What write queue length does an incoming req see
system.mem_ctrls0.wrQLenPdf::6                      2                       # What write queue length does an incoming req see
system.mem_ctrls0.wrQLenPdf::7                      2                       # What write queue length does an incoming req see
system.mem_ctrls0.wrQLenPdf::8                      2                       # What write queue length does an incoming req see
system.mem_ctrls0.wrQLenPdf::9                      2                       # What write queue length does an incoming req see
system.mem_ctrls0.wrQLenPdf::10                     2                       # What write queue length does an incoming req see
system.mem_ctrls0.wrQLenPdf::11                     2                       # What write queue length does an incoming req see
system.mem_ctrls0.wrQLenPdf::12                     2                       # What write queue length does an incoming req see
system.mem_ctrls0.wrQLenPdf::13                     2                       # What write queue length does an incoming req see
system.mem_ctrls0.wrQLenPdf::14                     2                       # What write queue length does an incoming req see
system.mem_ctrls0.wrQLenPdf::15                  4169                       # What write queue length does an incoming req see
system.mem_ctrls0.wrQLenPdf::16                  4220                       # What write queue length does an incoming req see
system.mem_ctrls0.wrQLenPdf::17                  5123                       # What write queue length does an incoming req see
system.mem_ctrls0.wrQLenPdf::18                  5204                       # What write queue length does an incoming req see
system.mem_ctrls0.wrQLenPdf::19                  5209                       # What write queue length does an incoming req see
system.mem_ctrls0.wrQLenPdf::20                  5211                       # What write queue length does an incoming req see
system.mem_ctrls0.wrQLenPdf::21                  5201                       # What write queue length does an incoming req see
system.mem_ctrls0.wrQLenPdf::22                  5216                       # What write queue length does an incoming req see
system.mem_ctrls0.wrQLenPdf::23                  5208                       # What write queue length does an incoming req see
system.mem_ctrls0.wrQLenPdf::24                  5209                       # What write queue length does an incoming req see
system.mem_ctrls0.wrQLenPdf::25                  5238                       # What write queue length does an incoming req see
system.mem_ctrls0.wrQLenPdf::26                  5213                       # What write queue length does an incoming req see
system.mem_ctrls0.wrQLenPdf::27                  5205                       # What write queue length does an incoming req see
system.mem_ctrls0.wrQLenPdf::28                  5196                       # What write queue length does an incoming req see
system.mem_ctrls0.wrQLenPdf::29                  5193                       # What write queue length does an incoming req see
system.mem_ctrls0.wrQLenPdf::30                  5196                       # What write queue length does an incoming req see
system.mem_ctrls0.wrQLenPdf::31                  5180                       # What write queue length does an incoming req see
system.mem_ctrls0.wrQLenPdf::32                  5179                       # What write queue length does an incoming req see
system.mem_ctrls0.wrQLenPdf::33                    94                       # What write queue length does an incoming req see
system.mem_ctrls0.wrQLenPdf::34                    23                       # What write queue length does an incoming req see
system.mem_ctrls0.wrQLenPdf::35                     4                       # What write queue length does an incoming req see
system.mem_ctrls0.wrQLenPdf::36                     1                       # What write queue length does an incoming req see
system.mem_ctrls0.wrQLenPdf::37                     1                       # What write queue length does an incoming req see
system.mem_ctrls0.wrQLenPdf::38                     1                       # What write queue length does an incoming req see
system.mem_ctrls0.wrQLenPdf::39                     0                       # What write queue length does an incoming req see
system.mem_ctrls0.wrQLenPdf::40                     0                       # What write queue length does an incoming req see
system.mem_ctrls0.wrQLenPdf::41                     0                       # What write queue length does an incoming req see
system.mem_ctrls0.wrQLenPdf::42                     0                       # What write queue length does an incoming req see
system.mem_ctrls0.wrQLenPdf::43                     0                       # What write queue length does an incoming req see
system.mem_ctrls0.wrQLenPdf::44                     0                       # What write queue length does an incoming req see
system.mem_ctrls0.wrQLenPdf::45                     0                       # What write queue length does an incoming req see
system.mem_ctrls0.wrQLenPdf::46                     0                       # What write queue length does an incoming req see
system.mem_ctrls0.wrQLenPdf::47                     0                       # What write queue length does an incoming req see
system.mem_ctrls0.wrQLenPdf::48                     0                       # What write queue length does an incoming req see
system.mem_ctrls0.wrQLenPdf::49                     0                       # What write queue length does an incoming req see
system.mem_ctrls0.wrQLenPdf::50                     0                       # What write queue length does an incoming req see
system.mem_ctrls0.wrQLenPdf::51                     0                       # What write queue length does an incoming req see
system.mem_ctrls0.wrQLenPdf::52                     0                       # What write queue length does an incoming req see
system.mem_ctrls0.wrQLenPdf::53                     0                       # What write queue length does an incoming req see
system.mem_ctrls0.wrQLenPdf::54                     0                       # What write queue length does an incoming req see
system.mem_ctrls0.wrQLenPdf::55                     0                       # What write queue length does an incoming req see
system.mem_ctrls0.wrQLenPdf::56                     0                       # What write queue length does an incoming req see
system.mem_ctrls0.wrQLenPdf::57                     0                       # What write queue length does an incoming req see
system.mem_ctrls0.wrQLenPdf::58                     0                       # What write queue length does an incoming req see
system.mem_ctrls0.wrQLenPdf::59                     0                       # What write queue length does an incoming req see
system.mem_ctrls0.wrQLenPdf::60                     0                       # What write queue length does an incoming req see
system.mem_ctrls0.wrQLenPdf::61                     0                       # What write queue length does an incoming req see
system.mem_ctrls0.wrQLenPdf::62                     0                       # What write queue length does an incoming req see
system.mem_ctrls0.wrQLenPdf::63                     0                       # What write queue length does an incoming req see
system.mem_ctrls0.bytesPerActivate::samples       210374                       # Bytes accessed per row activation
system.mem_ctrls0.bytesPerActivate::mean    73.109263                       # Bytes accessed per row activation
system.mem_ctrls0.bytesPerActivate::gmean    68.389633                       # Bytes accessed per row activation
system.mem_ctrls0.bytesPerActivate::stdev    55.824200                       # Bytes accessed per row activation
system.mem_ctrls0.bytesPerActivate::0-127       195151     92.76%     92.76% # Bytes accessed per row activation
system.mem_ctrls0.bytesPerActivate::128-255        13051      6.20%     98.97% # Bytes accessed per row activation
system.mem_ctrls0.bytesPerActivate::256-383          940      0.45%     99.41% # Bytes accessed per row activation
system.mem_ctrls0.bytesPerActivate::384-511          345      0.16%     99.58% # Bytes accessed per row activation
system.mem_ctrls0.bytesPerActivate::512-639          209      0.10%     99.68% # Bytes accessed per row activation
system.mem_ctrls0.bytesPerActivate::640-767          139      0.07%     99.74% # Bytes accessed per row activation
system.mem_ctrls0.bytesPerActivate::768-895          106      0.05%     99.79% # Bytes accessed per row activation
system.mem_ctrls0.bytesPerActivate::896-1023          202      0.10%     99.89% # Bytes accessed per row activation
system.mem_ctrls0.bytesPerActivate::1024-1151          231      0.11%    100.00% # Bytes accessed per row activation
system.mem_ctrls0.bytesPerActivate::total       210374                       # Bytes accessed per row activation
system.mem_ctrls0.rdPerTurnAround::samples         5180                       # Reads before turning the bus around for writes
system.mem_ctrls0.rdPerTurnAround::mean     28.691892                       # Reads before turning the bus around for writes
system.mem_ctrls0.rdPerTurnAround::stdev   360.271293                       # Reads before turning the bus around for writes
system.mem_ctrls0.rdPerTurnAround::0-1023         5179     99.98%     99.98% # Reads before turning the bus around for writes
system.mem_ctrls0.rdPerTurnAround::25600-26623            1      0.02%    100.00% # Reads before turning the bus around for writes
system.mem_ctrls0.rdPerTurnAround::total         5180                       # Reads before turning the bus around for writes
system.mem_ctrls0.wrPerTurnAround::samples         5180                       # Writes before turning the bus around for reads
system.mem_ctrls0.wrPerTurnAround::mean     17.703089                       # Writes before turning the bus around for reads
system.mem_ctrls0.wrPerTurnAround::gmean    17.679343                       # Writes before turning the bus around for reads
system.mem_ctrls0.wrPerTurnAround::stdev     0.909429                       # Writes before turning the bus around for reads
system.mem_ctrls0.wrPerTurnAround::16             978     18.88%     18.88% # Writes before turning the bus around for reads
system.mem_ctrls0.wrPerTurnAround::17              26      0.50%     19.38% # Writes before turning the bus around for reads
system.mem_ctrls0.wrPerTurnAround::18            3822     73.78%     93.17% # Writes before turning the bus around for reads
system.mem_ctrls0.wrPerTurnAround::19             294      5.68%     98.84% # Writes before turning the bus around for reads
system.mem_ctrls0.wrPerTurnAround::20              48      0.93%     99.77% # Writes before turning the bus around for reads
system.mem_ctrls0.wrPerTurnAround::21               6      0.12%     99.88% # Writes before turning the bus around for reads
system.mem_ctrls0.wrPerTurnAround::22               2      0.04%     99.92% # Writes before turning the bus around for reads
system.mem_ctrls0.wrPerTurnAround::23               2      0.04%     99.96% # Writes before turning the bus around for reads
system.mem_ctrls0.wrPerTurnAround::24               1      0.02%     99.98% # Writes before turning the bus around for reads
system.mem_ctrls0.wrPerTurnAround::30               1      0.02%    100.00% # Writes before turning the bus around for reads
system.mem_ctrls0.wrPerTurnAround::total         5180                       # Writes before turning the bus around for reads
system.mem_ctrls0.totQLat                 27581049448                       # Total ticks spent queuing
system.mem_ctrls0.totMemAccLat            30367749448                       # Total ticks spent from burst creation until serviced by the DRAM
system.mem_ctrls0.totBusLat                 743120000                       # Total ticks spent in databus transfers
system.mem_ctrls0.avgQLat                   185576.01                       # Average queueing delay per DRAM burst
system.mem_ctrls0.avgBusLat                   5000.00                       # Average bus latency per DRAM burst
system.mem_ctrls0.avgMemAccLat              204326.01                       # Average memory access latency per DRAM burst
system.mem_ctrls0.avgRdBW                        8.53                       # Average DRAM read bandwidth in MiByte/s
system.mem_ctrls0.avgWrBW                        5.26                       # Average achieved write bandwidth in MiByte/s
system.mem_ctrls0.avgRdBWSys                     8.54                       # Average system read bandwidth in MiByte/s
system.mem_ctrls0.avgWrBWSys                     5.27                       # Average system write bandwidth in MiByte/s
system.mem_ctrls0.peakBW                     12800.00                       # Theoretical peak bandwidth in MiByte/s
system.mem_ctrls0.busUtil                        0.11                       # Data bus utilization in percentage
system.mem_ctrls0.busUtilRead                    0.07                       # Data bus utilization in percentage for reads
system.mem_ctrls0.busUtilWrite                   0.04                       # Data bus utilization in percentage for writes
system.mem_ctrls0.avgRdQLen                      1.00                       # Average read queue length when enqueuing
system.mem_ctrls0.avgWrQLen                     20.83                       # Average write queue length when enqueuing
system.mem_ctrls0.readRowHits                   20277                       # Number of row buffer hits during reads
system.mem_ctrls0.writeRowHits                   9667                       # Number of row buffer hits during writes
system.mem_ctrls0.readRowHitRate                13.64                       # Row buffer hit rate for reads
system.mem_ctrls0.writeRowHitRate               10.54                       # Row buffer hit rate for writes
system.mem_ctrls0.avgGap                   4637066.68                       # Average gap between requests
system.mem_ctrls0.pageHitRate                   12.46                       # Row buffer hit rate, read and write combined
system.mem_ctrls0_0.actEnergy               755504820                       # Energy for activate commands per rank (pJ)
system.mem_ctrls0_0.preEnergy               401545155                       # Energy for precharge commands per rank (pJ)
system.mem_ctrls0_0.readEnergy              532615440                       # Energy for read commands per rank (pJ)
system.mem_ctrls0_0.writeEnergy             240187860                       # Energy for write commands per rank (pJ)
system.mem_ctrls0_0.refreshEnergy        58116670560.000015                       # Energy for refresh commands per rank (pJ)
system.mem_ctrls0_0.actBackEnergy         20093939820                       # Energy for active background per rank (pJ)
system.mem_ctrls0_0.preBackEnergy          3389688480                       # Energy for precharge background per rank (pJ)
system.mem_ctrls0_0.actPowerDownEnergy   115036538730                       # Energy for active power-down per rank (pJ)
system.mem_ctrls0_0.prePowerDownEnergy    96894769920                       # Energy for precharge power-down per rank (pJ)
system.mem_ctrls0_0.selfRefreshEnergy    147387553035                       # Energy for self refresh per rank (pJ)
system.mem_ctrls0_0.totalEnergy          442876638000                       # Total energy per rank (pJ)
system.mem_ctrls0_0.averagePower           397.249215                       # Core power per rank (mW)
system.mem_ctrls0_0.totalIdleTime        1061904152490                       # Total Idle time Per DRAM Rank
system.mem_ctrls0_0.memoryStateTime::IDLE   6785193237                       # Time in different power states
system.mem_ctrls0_0.memoryStateTime::REF  24734634000                       # Time in different power states
system.mem_ctrls0_0.memoryStateTime::SREF 557300830215                       # Time in different power states
system.mem_ctrls0_0.memoryStateTime::PRE_PDN 252330124692                       # Time in different power states
system.mem_ctrls0_0.memoryStateTime::ACT  21434444541                       # Time in different power states
system.mem_ctrls0_0.memoryStateTime::ACT_PDN 252273197583                       # Time in different power states
system.mem_ctrls0_1.actEnergy               746622660                       # Energy for activate commands per rank (pJ)
system.mem_ctrls0_1.preEnergy               396824175                       # Energy for precharge commands per rank (pJ)
system.mem_ctrls0_1.readEnergy              528559920                       # Energy for read commands per rank (pJ)
system.mem_ctrls0_1.writeEnergy             238496580                       # Energy for write commands per rank (pJ)
system.mem_ctrls0_1.refreshEnergy        57925517520.000015                       # Energy for refresh commands per rank (pJ)
system.mem_ctrls0_1.actBackEnergy         19962425430                       # Energy for active background per rank (pJ)
system.mem_ctrls0_1.preBackEnergy          3396968640                       # Energy for precharge background per rank (pJ)
system.mem_ctrls0_1.actPowerDownEnergy   114152685330                       # Energy for active power-down per rank (pJ)
system.mem_ctrls0_1.prePowerDownEnergy    96535021440                       # Energy for precharge power-down per rank (pJ)
system.mem_ctrls0_1.selfRefreshEnergy    148197182085                       # Energy for self refresh per rank (pJ)
system.mem_ctrls0_1.totalEnergy          442106957460                       # Total energy per rank (pJ)
system.mem_ctrls0_1.averagePower           396.558831                       # Core power per rank (mW)
system.mem_ctrls0_1.totalIdleTime        1062175240762                       # Total Idle time Per DRAM Rank
system.mem_ctrls0_1.memoryStateTime::IDLE   6811984062                       # Time in different power states
system.mem_ctrls0_1.memoryStateTime::REF  24654302000                       # Time in different power states
system.mem_ctrls0_1.memoryStateTime::SREF 560447378965                       # Time in different power states
system.mem_ctrls0_1.memoryStateTime::PRE_PDN 251393117270                       # Time in different power states
system.mem_ctrls0_1.memoryStateTime::ACT  21216897444                       # Time in different power states
system.mem_ctrls0_1.memoryStateTime::ACT_PDN 250334744527                       # Time in different power states
system.mem_ctrls1.pwrStateResidencyTicks::UNDEFINED 18768199815198                       # Cumulative time (in ticks) in various power states
system.mem_ctrls1.bytes_read::cpu.inst            128                       # Number of bytes read from this memory
system.mem_ctrls1.bytes_read::cpu.data            192                       # Number of bytes read from this memory
system.mem_ctrls1.bytes_read::switch_cpus.inst       132992                       # Number of bytes read from this memory
system.mem_ctrls1.bytes_read::switch_cpus.data      8036992                       # Number of bytes read from this memory
system.mem_ctrls1.bytes_read::switch_cpus_1.inst        16768                       # Number of bytes read from this memory
system.mem_ctrls1.bytes_read::switch_cpus_1.data      1357376                       # Number of bytes read from this memory
system.mem_ctrls1.bytes_read::total           9544448                       # Number of bytes read from this memory
system.mem_ctrls1.bytes_inst_read::cpu.inst          128                       # Number of instructions bytes read from this memory
system.mem_ctrls1.bytes_inst_read::switch_cpus.inst       132992                       # Number of instructions bytes read from this memory
system.mem_ctrls1.bytes_inst_read::switch_cpus_1.inst        16768                       # Number of instructions bytes read from this memory
system.mem_ctrls1.bytes_inst_read::total       149888                       # Number of instructions bytes read from this memory
system.mem_ctrls1.bytes_written::writebacks      5880448                       # Number of bytes written to this memory
system.mem_ctrls1.bytes_written::total        5880448                       # Number of bytes written to this memory
system.mem_ctrls1.num_reads::cpu.inst               2                       # Number of read requests responded to by this memory
system.mem_ctrls1.num_reads::cpu.data               3                       # Number of read requests responded to by this memory
system.mem_ctrls1.num_reads::switch_cpus.inst         2078                       # Number of read requests responded to by this memory
system.mem_ctrls1.num_reads::switch_cpus.data       125578                       # Number of read requests responded to by this memory
system.mem_ctrls1.num_reads::switch_cpus_1.inst          262                       # Number of read requests responded to by this memory
system.mem_ctrls1.num_reads::switch_cpus_1.data        21209                       # Number of read requests responded to by this memory
system.mem_ctrls1.num_reads::total             149132                       # Number of read requests responded to by this memory
system.mem_ctrls1.num_writes::writebacks        91882                       # Number of write requests responded to by this memory
system.mem_ctrls1.num_writes::total             91882                       # Number of write requests responded to by this memory
system.mem_ctrls1.bw_read::cpu.inst               115                       # Total read bandwidth from this memory (bytes/s)
system.mem_ctrls1.bw_read::cpu.data               172                       # Total read bandwidth from this memory (bytes/s)
system.mem_ctrls1.bw_read::switch_cpus.inst       119290                       # Total read bandwidth from this memory (bytes/s)
system.mem_ctrls1.bw_read::switch_cpus.data      7208980                       # Total read bandwidth from this memory (bytes/s)
system.mem_ctrls1.bw_read::switch_cpus_1.inst        15040                       # Total read bandwidth from this memory (bytes/s)
system.mem_ctrls1.bw_read::switch_cpus_1.data      1217532                       # Total read bandwidth from this memory (bytes/s)
system.mem_ctrls1.bw_read::total              8561130                       # Total read bandwidth from this memory (bytes/s)
system.mem_ctrls1.bw_inst_read::cpu.inst          115                       # Instruction read bandwidth from this memory (bytes/s)
system.mem_ctrls1.bw_inst_read::switch_cpus.inst       119290                       # Instruction read bandwidth from this memory (bytes/s)
system.mem_ctrls1.bw_inst_read::switch_cpus_1.inst        15040                       # Instruction read bandwidth from this memory (bytes/s)
system.mem_ctrls1.bw_inst_read::total          134446                       # Instruction read bandwidth from this memory (bytes/s)
system.mem_ctrls1.bw_write::writebacks        5274614                       # Write bandwidth from this memory (bytes/s)
system.mem_ctrls1.bw_write::total             5274614                       # Write bandwidth from this memory (bytes/s)
system.mem_ctrls1.bw_total::writebacks        5274614                       # Total bandwidth to/from this memory (bytes/s)
system.mem_ctrls1.bw_total::cpu.inst              115                       # Total bandwidth to/from this memory (bytes/s)
system.mem_ctrls1.bw_total::cpu.data              172                       # Total bandwidth to/from this memory (bytes/s)
system.mem_ctrls1.bw_total::switch_cpus.inst       119290                       # Total bandwidth to/from this memory (bytes/s)
system.mem_ctrls1.bw_total::switch_cpus.data      7208980                       # Total bandwidth to/from this memory (bytes/s)
system.mem_ctrls1.bw_total::switch_cpus_1.inst        15040                       # Total bandwidth to/from this memory (bytes/s)
system.mem_ctrls1.bw_total::switch_cpus_1.data      1217532                       # Total bandwidth to/from this memory (bytes/s)
system.mem_ctrls1.bw_total::total            13835744                       # Total bandwidth to/from this memory (bytes/s)
system.mem_ctrls1.readReqs                     149132                       # Number of read requests accepted
system.mem_ctrls1.writeReqs                     91882                       # Number of write requests accepted
system.mem_ctrls1.readBursts                   149132                       # Number of DRAM read bursts, including those serviced by the write queue
system.mem_ctrls1.writeBursts                   91882                       # Number of DRAM write bursts, including those merged in the write queue
system.mem_ctrls1.bytesReadDRAM               9539264                       # Total number of bytes read from DRAM
system.mem_ctrls1.bytesReadWrQ                   5184                       # Total number of bytes read from write queue
system.mem_ctrls1.bytesWritten                5878400                       # Total number of bytes written to DRAM
system.mem_ctrls1.bytesReadSys                9544448                       # Total read bytes from the system interface side
system.mem_ctrls1.bytesWrittenSys             5880448                       # Total written bytes from the system interface side
system.mem_ctrls1.servicedByWrQ                    81                       # Number of DRAM read bursts serviced by the write queue
system.mem_ctrls1.mergedWrBursts                    0                       # Number of DRAM write bursts merged with an existing one
system.mem_ctrls1.neitherReadNorWriteReqs            0                       # Number of requests that are neither read nor write
system.mem_ctrls1.perBankRdBursts::0             9033                       # Per bank write bursts
system.mem_ctrls1.perBankRdBursts::1             9353                       # Per bank write bursts
system.mem_ctrls1.perBankRdBursts::2             9405                       # Per bank write bursts
system.mem_ctrls1.perBankRdBursts::3             9769                       # Per bank write bursts
system.mem_ctrls1.perBankRdBursts::4             9748                       # Per bank write bursts
system.mem_ctrls1.perBankRdBursts::5             9583                       # Per bank write bursts
system.mem_ctrls1.perBankRdBursts::6             8850                       # Per bank write bursts
system.mem_ctrls1.perBankRdBursts::7             9102                       # Per bank write bursts
system.mem_ctrls1.perBankRdBursts::8             9477                       # Per bank write bursts
system.mem_ctrls1.perBankRdBursts::9             9717                       # Per bank write bursts
system.mem_ctrls1.perBankRdBursts::10            9176                       # Per bank write bursts
system.mem_ctrls1.perBankRdBursts::11            9594                       # Per bank write bursts
system.mem_ctrls1.perBankRdBursts::12            9337                       # Per bank write bursts
system.mem_ctrls1.perBankRdBursts::13            9138                       # Per bank write bursts
system.mem_ctrls1.perBankRdBursts::14            8870                       # Per bank write bursts
system.mem_ctrls1.perBankRdBursts::15            8899                       # Per bank write bursts
system.mem_ctrls1.perBankWrBursts::0             5760                       # Per bank write bursts
system.mem_ctrls1.perBankWrBursts::1             5975                       # Per bank write bursts
system.mem_ctrls1.perBankWrBursts::2             5801                       # Per bank write bursts
system.mem_ctrls1.perBankWrBursts::3             5976                       # Per bank write bursts
system.mem_ctrls1.perBankWrBursts::4             5952                       # Per bank write bursts
system.mem_ctrls1.perBankWrBursts::5             5838                       # Per bank write bursts
system.mem_ctrls1.perBankWrBursts::6             5333                       # Per bank write bursts
system.mem_ctrls1.perBankWrBursts::7             5436                       # Per bank write bursts
system.mem_ctrls1.perBankWrBursts::8             5440                       # Per bank write bursts
system.mem_ctrls1.perBankWrBursts::9             5657                       # Per bank write bursts
system.mem_ctrls1.perBankWrBursts::10            5800                       # Per bank write bursts
system.mem_ctrls1.perBankWrBursts::11            6253                       # Per bank write bursts
system.mem_ctrls1.perBankWrBursts::12            5908                       # Per bank write bursts
system.mem_ctrls1.perBankWrBursts::13            5606                       # Per bank write bursts
system.mem_ctrls1.perBankWrBursts::14            5453                       # Per bank write bursts
system.mem_ctrls1.perBankWrBursts::15            5662                       # Per bank write bursts
system.mem_ctrls1.numRdRetry                        0                       # Number of times read queue was full causing retry
system.mem_ctrls1.numWrRetry                        0                       # Number of times write queue was full causing retry
system.mem_ctrls1.totGap                 1114856174187                       # Total gap between requests
system.mem_ctrls1.readPktSize::0                    0                       # Read request sizes (log2)
system.mem_ctrls1.readPktSize::1                    0                       # Read request sizes (log2)
system.mem_ctrls1.readPktSize::2                    0                       # Read request sizes (log2)
system.mem_ctrls1.readPktSize::3                    0                       # Read request sizes (log2)
system.mem_ctrls1.readPktSize::4                    0                       # Read request sizes (log2)
system.mem_ctrls1.readPktSize::5                    0                       # Read request sizes (log2)
system.mem_ctrls1.readPktSize::6               149132                       # Read request sizes (log2)
system.mem_ctrls1.writePktSize::0                   0                       # Write request sizes (log2)
system.mem_ctrls1.writePktSize::1                   0                       # Write request sizes (log2)
system.mem_ctrls1.writePktSize::2                   0                       # Write request sizes (log2)
system.mem_ctrls1.writePktSize::3                   0                       # Write request sizes (log2)
system.mem_ctrls1.writePktSize::4                   0                       # Write request sizes (log2)
system.mem_ctrls1.writePktSize::5                   0                       # Write request sizes (log2)
system.mem_ctrls1.writePktSize::6               91882                       # Write request sizes (log2)
system.mem_ctrls1.rdQLenPdf::0                 147319                       # What read queue length does an incoming req see
system.mem_ctrls1.rdQLenPdf::1                   1695                       # What read queue length does an incoming req see
system.mem_ctrls1.rdQLenPdf::2                     36                       # What read queue length does an incoming req see
system.mem_ctrls1.rdQLenPdf::3                      1                       # What read queue length does an incoming req see
system.mem_ctrls1.rdQLenPdf::4                      0                       # What read queue length does an incoming req see
system.mem_ctrls1.rdQLenPdf::5                      0                       # What read queue length does an incoming req see
system.mem_ctrls1.rdQLenPdf::6                      0                       # What read queue length does an incoming req see
system.mem_ctrls1.rdQLenPdf::7                      0                       # What read queue length does an incoming req see
system.mem_ctrls1.rdQLenPdf::8                      0                       # What read queue length does an incoming req see
system.mem_ctrls1.rdQLenPdf::9                      0                       # What read queue length does an incoming req see
system.mem_ctrls1.rdQLenPdf::10                     0                       # What read queue length does an incoming req see
system.mem_ctrls1.rdQLenPdf::11                     0                       # What read queue length does an incoming req see
system.mem_ctrls1.rdQLenPdf::12                     0                       # What read queue length does an incoming req see
system.mem_ctrls1.rdQLenPdf::13                     0                       # What read queue length does an incoming req see
system.mem_ctrls1.rdQLenPdf::14                     0                       # What read queue length does an incoming req see
system.mem_ctrls1.rdQLenPdf::15                     0                       # What read queue length does an incoming req see
system.mem_ctrls1.rdQLenPdf::16                     0                       # What read queue length does an incoming req see
system.mem_ctrls1.rdQLenPdf::17                     0                       # What read queue length does an incoming req see
system.mem_ctrls1.rdQLenPdf::18                     0                       # What read queue length does an incoming req see
system.mem_ctrls1.rdQLenPdf::19                     0                       # What read queue length does an incoming req see
system.mem_ctrls1.rdQLenPdf::20                     0                       # What read queue length does an incoming req see
system.mem_ctrls1.rdQLenPdf::21                     0                       # What read queue length does an incoming req see
system.mem_ctrls1.rdQLenPdf::22                     0                       # What read queue length does an incoming req see
system.mem_ctrls1.rdQLenPdf::23                     0                       # What read queue length does an incoming req see
system.mem_ctrls1.rdQLenPdf::24                     0                       # What read queue length does an incoming req see
system.mem_ctrls1.rdQLenPdf::25                     0                       # What read queue length does an incoming req see
system.mem_ctrls1.rdQLenPdf::26                     0                       # What read queue length does an incoming req see
system.mem_ctrls1.rdQLenPdf::27                     0                       # What read queue length does an incoming req see
system.mem_ctrls1.rdQLenPdf::28                     0                       # What read queue length does an incoming req see
system.mem_ctrls1.rdQLenPdf::29                     0                       # What read queue length does an incoming req see
system.mem_ctrls1.rdQLenPdf::30                     0                       # What read queue length does an incoming req see
system.mem_ctrls1.rdQLenPdf::31                     0                       # What read queue length does an incoming req see
system.mem_ctrls1.wrQLenPdf::0                      2                       # What write queue length does an incoming req see
system.mem_ctrls1.wrQLenPdf::1                      2                       # What write queue length does an incoming req see
system.mem_ctrls1.wrQLenPdf::2                      2                       # What write queue length does an incoming req see
system.mem_ctrls1.wrQLenPdf::3                      2                       # What write queue length does an incoming req see
system.mem_ctrls1.wrQLenPdf::4                      2                       # What write queue length does an incoming req see
system.mem_ctrls1.wrQLenPdf::5                      2                       # What write queue length does an incoming req see
system.mem_ctrls1.wrQLenPdf::6                      2                       # What write queue length does an incoming req see
system.mem_ctrls1.wrQLenPdf::7                      2                       # What write queue length does an incoming req see
system.mem_ctrls1.wrQLenPdf::8                      2                       # What write queue length does an incoming req see
system.mem_ctrls1.wrQLenPdf::9                      2                       # What write queue length does an incoming req see
system.mem_ctrls1.wrQLenPdf::10                     2                       # What write queue length does an incoming req see
system.mem_ctrls1.wrQLenPdf::11                     2                       # What write queue length does an incoming req see
system.mem_ctrls1.wrQLenPdf::12                     2                       # What write queue length does an incoming req see
system.mem_ctrls1.wrQLenPdf::13                     2                       # What write queue length does an incoming req see
system.mem_ctrls1.wrQLenPdf::14                     2                       # What write queue length does an incoming req see
system.mem_ctrls1.wrQLenPdf::15                  4152                       # What write queue length does an incoming req see
system.mem_ctrls1.wrQLenPdf::16                  4229                       # What write queue length does an incoming req see
system.mem_ctrls1.wrQLenPdf::17                  5139                       # What write queue length does an incoming req see
system.mem_ctrls1.wrQLenPdf::18                  5203                       # What write queue length does an incoming req see
system.mem_ctrls1.wrQLenPdf::19                  5220                       # What write queue length does an incoming req see
system.mem_ctrls1.wrQLenPdf::20                  5216                       # What write queue length does an incoming req see
system.mem_ctrls1.wrQLenPdf::21                  5213                       # What write queue length does an incoming req see
system.mem_ctrls1.wrQLenPdf::22                  5233                       # What write queue length does an incoming req see
system.mem_ctrls1.wrQLenPdf::23                  5221                       # What write queue length does an incoming req see
system.mem_ctrls1.wrQLenPdf::24                  5224                       # What write queue length does an incoming req see
system.mem_ctrls1.wrQLenPdf::25                  5232                       # What write queue length does an incoming req see
system.mem_ctrls1.wrQLenPdf::26                  5223                       # What write queue length does an incoming req see
system.mem_ctrls1.wrQLenPdf::27                  5214                       # What write queue length does an incoming req see
system.mem_ctrls1.wrQLenPdf::28                  5204                       # What write queue length does an incoming req see
system.mem_ctrls1.wrQLenPdf::29                  5201                       # What write queue length does an incoming req see
system.mem_ctrls1.wrQLenPdf::30                  5210                       # What write queue length does an incoming req see
system.mem_ctrls1.wrQLenPdf::31                  5189                       # What write queue length does an incoming req see
system.mem_ctrls1.wrQLenPdf::32                  5186                       # What write queue length does an incoming req see
system.mem_ctrls1.wrQLenPdf::33                   115                       # What write queue length does an incoming req see
system.mem_ctrls1.wrQLenPdf::34                    20                       # What write queue length does an incoming req see
system.mem_ctrls1.wrQLenPdf::35                     6                       # What write queue length does an incoming req see
system.mem_ctrls1.wrQLenPdf::36                     2                       # What write queue length does an incoming req see
system.mem_ctrls1.wrQLenPdf::37                     0                       # What write queue length does an incoming req see
system.mem_ctrls1.wrQLenPdf::38                     0                       # What write queue length does an incoming req see
system.mem_ctrls1.wrQLenPdf::39                     0                       # What write queue length does an incoming req see
system.mem_ctrls1.wrQLenPdf::40                     0                       # What write queue length does an incoming req see
system.mem_ctrls1.wrQLenPdf::41                     0                       # What write queue length does an incoming req see
system.mem_ctrls1.wrQLenPdf::42                     0                       # What write queue length does an incoming req see
system.mem_ctrls1.wrQLenPdf::43                     0                       # What write queue length does an incoming req see
system.mem_ctrls1.wrQLenPdf::44                     0                       # What write queue length does an incoming req see
system.mem_ctrls1.wrQLenPdf::45                     0                       # What write queue length does an incoming req see
system.mem_ctrls1.wrQLenPdf::46                     0                       # What write queue length does an incoming req see
system.mem_ctrls1.wrQLenPdf::47                     0                       # What write queue length does an incoming req see
system.mem_ctrls1.wrQLenPdf::48                     0                       # What write queue length does an incoming req see
system.mem_ctrls1.wrQLenPdf::49                     0                       # What write queue length does an incoming req see
system.mem_ctrls1.wrQLenPdf::50                     0                       # What write queue length does an incoming req see
system.mem_ctrls1.wrQLenPdf::51                     0                       # What write queue length does an incoming req see
system.mem_ctrls1.wrQLenPdf::52                     0                       # What write queue length does an incoming req see
system.mem_ctrls1.wrQLenPdf::53                     0                       # What write queue length does an incoming req see
system.mem_ctrls1.wrQLenPdf::54                     0                       # What write queue length does an incoming req see
system.mem_ctrls1.wrQLenPdf::55                     0                       # What write queue length does an incoming req see
system.mem_ctrls1.wrQLenPdf::56                     0                       # What write queue length does an incoming req see
system.mem_ctrls1.wrQLenPdf::57                     0                       # What write queue length does an incoming req see
system.mem_ctrls1.wrQLenPdf::58                     0                       # What write queue length does an incoming req see
system.mem_ctrls1.wrQLenPdf::59                     0                       # What write queue length does an incoming req see
system.mem_ctrls1.wrQLenPdf::60                     0                       # What write queue length does an incoming req see
system.mem_ctrls1.wrQLenPdf::61                     0                       # What write queue length does an incoming req see
system.mem_ctrls1.wrQLenPdf::62                     0                       # What write queue length does an incoming req see
system.mem_ctrls1.wrQLenPdf::63                     0                       # What write queue length does an incoming req see
system.mem_ctrls1.bytesPerActivate::samples       211136                       # Bytes accessed per row activation
system.mem_ctrls1.bytesPerActivate::mean    73.021825                       # Bytes accessed per row activation
system.mem_ctrls1.bytesPerActivate::gmean    68.338388                       # Bytes accessed per row activation
system.mem_ctrls1.bytesPerActivate::stdev    55.564091                       # Bytes accessed per row activation
system.mem_ctrls1.bytesPerActivate::0-127       196042     92.85%     92.85% # Bytes accessed per row activation
system.mem_ctrls1.bytesPerActivate::128-255        12935      6.13%     98.98% # Bytes accessed per row activation
system.mem_ctrls1.bytesPerActivate::256-383          914      0.43%     99.41% # Bytes accessed per row activation
system.mem_ctrls1.bytesPerActivate::384-511          331      0.16%     99.57% # Bytes accessed per row activation
system.mem_ctrls1.bytesPerActivate::512-639          230      0.11%     99.68% # Bytes accessed per row activation
system.mem_ctrls1.bytesPerActivate::640-767          147      0.07%     99.75% # Bytes accessed per row activation
system.mem_ctrls1.bytesPerActivate::768-895          123      0.06%     99.80% # Bytes accessed per row activation
system.mem_ctrls1.bytesPerActivate::896-1023          196      0.09%     99.90% # Bytes accessed per row activation
system.mem_ctrls1.bytesPerActivate::1024-1151          218      0.10%    100.00% # Bytes accessed per row activation
system.mem_ctrls1.bytesPerActivate::total       211136                       # Bytes accessed per row activation
system.mem_ctrls1.rdPerTurnAround::samples         5187                       # Reads before turning the bus around for writes
system.mem_ctrls1.rdPerTurnAround::mean     28.732408                       # Reads before turning the bus around for writes
system.mem_ctrls1.rdPerTurnAround::stdev   358.955730                       # Reads before turning the bus around for writes
system.mem_ctrls1.rdPerTurnAround::0-1023         5186     99.98%     99.98% # Reads before turning the bus around for writes
system.mem_ctrls1.rdPerTurnAround::25600-26623            1      0.02%    100.00% # Reads before turning the bus around for writes
system.mem_ctrls1.rdPerTurnAround::total         5187                       # Reads before turning the bus around for writes
system.mem_ctrls1.wrPerTurnAround::samples         5187                       # Writes before turning the bus around for reads
system.mem_ctrls1.wrPerTurnAround::mean     17.707731                       # Writes before turning the bus around for reads
system.mem_ctrls1.wrPerTurnAround::gmean    17.683835                       # Writes before turning the bus around for reads
system.mem_ctrls1.wrPerTurnAround::stdev     0.908345                       # Writes before turning the bus around for reads
system.mem_ctrls1.wrPerTurnAround::16             982     18.93%     18.93% # Writes before turning the bus around for reads
system.mem_ctrls1.wrPerTurnAround::17              47      0.91%     19.84% # Writes before turning the bus around for reads
system.mem_ctrls1.wrPerTurnAround::18            3746     72.22%     92.06% # Writes before turning the bus around for reads
system.mem_ctrls1.wrPerTurnAround::19             355      6.84%     98.90% # Writes before turning the bus around for reads
system.mem_ctrls1.wrPerTurnAround::20              41      0.79%     99.69% # Writes before turning the bus around for reads
system.mem_ctrls1.wrPerTurnAround::21              10      0.19%     99.88% # Writes before turning the bus around for reads
system.mem_ctrls1.wrPerTurnAround::22               4      0.08%     99.96% # Writes before turning the bus around for reads
system.mem_ctrls1.wrPerTurnAround::23               1      0.02%     99.98% # Writes before turning the bus around for reads
system.mem_ctrls1.wrPerTurnAround::25               1      0.02%    100.00% # Writes before turning the bus around for reads
system.mem_ctrls1.wrPerTurnAround::total         5187                       # Writes before turning the bus around for reads
system.mem_ctrls1.totQLat                 27714684460                       # Total ticks spent queuing
system.mem_ctrls1.totMemAccLat            30509390710                       # Total ticks spent from burst creation until serviced by the DRAM
system.mem_ctrls1.totBusLat                 745255000                       # Total ticks spent in databus transfers
system.mem_ctrls1.avgQLat                   185940.95                       # Average queueing delay per DRAM burst
system.mem_ctrls1.avgBusLat                   5000.00                       # Average bus latency per DRAM burst
system.mem_ctrls1.avgMemAccLat              204690.95                       # Average memory access latency per DRAM burst
system.mem_ctrls1.avgRdBW                        8.56                       # Average DRAM read bandwidth in MiByte/s
system.mem_ctrls1.avgWrBW                        5.27                       # Average achieved write bandwidth in MiByte/s
system.mem_ctrls1.avgRdBWSys                     8.56                       # Average system read bandwidth in MiByte/s
system.mem_ctrls1.avgWrBWSys                     5.27                       # Average system write bandwidth in MiByte/s
system.mem_ctrls1.peakBW                     12800.00                       # Theoretical peak bandwidth in MiByte/s
system.mem_ctrls1.busUtil                        0.11                       # Data bus utilization in percentage
system.mem_ctrls1.busUtilRead                    0.07                       # Data bus utilization in percentage for reads
system.mem_ctrls1.busUtilWrite                   0.04                       # Data bus utilization in percentage for writes
system.mem_ctrls1.avgRdQLen                      1.00                       # Average read queue length when enqueuing
system.mem_ctrls1.avgWrQLen                     20.87                       # Average write queue length when enqueuing
system.mem_ctrls1.readRowHits                   20202                       # Number of row buffer hits during reads
system.mem_ctrls1.writeRowHits                   9561                       # Number of row buffer hits during writes
system.mem_ctrls1.readRowHitRate                13.55                       # Row buffer hit rate for reads
system.mem_ctrls1.writeRowHitRate               10.41                       # Row buffer hit rate for writes
system.mem_ctrls1.avgGap                   4625690.52                       # Average gap between requests
system.mem_ctrls1.pageHitRate                   12.35                       # Row buffer hit rate, read and write combined
system.mem_ctrls1_0.actEnergy               759124800                       # Energy for activate commands per rank (pJ)
system.mem_ctrls1_0.preEnergy               403484400                       # Energy for precharge commands per rank (pJ)
system.mem_ctrls1_0.readEnergy              534379020                       # Energy for read commands per rank (pJ)
system.mem_ctrls1_0.writeEnergy             240490620                       # Energy for write commands per rank (pJ)
system.mem_ctrls1_0.refreshEnergy        58200261600.000015                       # Energy for refresh commands per rank (pJ)
system.mem_ctrls1_0.actBackEnergy         20220247830                       # Energy for active background per rank (pJ)
system.mem_ctrls1_0.preBackEnergy          3401322240                       # Energy for precharge background per rank (pJ)
system.mem_ctrls1_0.actPowerDownEnergy   115436747700                       # Energy for active power-down per rank (pJ)
system.mem_ctrls1_0.prePowerDownEnergy    96647734560                       # Energy for precharge power-down per rank (pJ)
system.mem_ctrls1_0.selfRefreshEnergy    147296394210                       # Energy for self refresh per rank (pJ)
system.mem_ctrls1_0.totalEnergy          443167064820                       # Total energy per rank (pJ)
system.mem_ctrls1_0.averagePower           397.509721                       # Core power per rank (mW)
system.mem_ctrls1_0.totalIdleTime        1061587037817                       # Total Idle time Per DRAM Rank
system.mem_ctrls1_0.memoryStateTime::IDLE   6811590125                       # Time in different power states
system.mem_ctrls1_0.memoryStateTime::REF  24770222000                       # Time in different power states
system.mem_ctrls1_0.memoryStateTime::SREF 556760824268                       # Time in different power states
system.mem_ctrls1_0.memoryStateTime::PRE_PDN 251686952353                       # Time in different power states
system.mem_ctrls1_0.memoryStateTime::ACT  21678174915                       # Time in different power states
system.mem_ctrls1_0.memoryStateTime::ACT_PDN 253150660607                       # Time in different power states
system.mem_ctrls1_1.actEnergy               748400520                       # Energy for activate commands per rank (pJ)
system.mem_ctrls1_1.preEnergy               397776720                       # Energy for precharge commands per rank (pJ)
system.mem_ctrls1_1.readEnergy              529845120                       # Energy for read commands per rank (pJ)
system.mem_ctrls1_1.writeEnergy             238966380                       # Energy for write commands per rank (pJ)
system.mem_ctrls1_1.refreshEnergy        58255579200.000015                       # Energy for refresh commands per rank (pJ)
system.mem_ctrls1_1.actBackEnergy         20236345770                       # Energy for active background per rank (pJ)
system.mem_ctrls1_1.preBackEnergy          3421549920                       # Energy for precharge background per rank (pJ)
system.mem_ctrls1_1.actPowerDownEnergy   114776898030                       # Energy for active power-down per rank (pJ)
system.mem_ctrls1_1.prePowerDownEnergy    96981894720                       # Energy for precharge power-down per rank (pJ)
system.mem_ctrls1_1.selfRefreshEnergy    147505041045                       # Energy for self refresh per rank (pJ)
system.mem_ctrls1_1.totalEnergy          443118457155                       # Total energy per rank (pJ)
system.mem_ctrls1_1.averagePower           397.466123                       # Core power per rank (mW)
system.mem_ctrls1_1.totalIdleTime        1061510299017                       # Total Idle time Per DRAM Rank
system.mem_ctrls1_1.memoryStateTime::IDLE   6862889804                       # Time in different power states
system.mem_ctrls1_1.memoryStateTime::REF  24794714000                       # Time in different power states
system.mem_ctrls1_1.memoryStateTime::SREF 557251304275                       # Time in different power states
system.mem_ctrls1_1.memoryStateTime::PRE_PDN 252557232647                       # Time in different power states
system.mem_ctrls1_1.memoryStateTime::ACT  21688443399                       # Time in different power states
system.mem_ctrls1_1.memoryStateTime::ACT_PDN 251703840143                       # Time in different power states
system.pwrStateResidencyTicks::UNDEFINED 18768199815198                       # Cumulative time (in ticks) in various power states
system.cpu.branchPred.lookups                       3                       # Number of BP lookups
system.cpu.branchPred.condPredicted                 1                       # Number of conditional branches predicted
system.cpu.branchPred.condIncorrect                 1                       # Number of conditional branches incorrect
system.cpu.branchPred.BTBLookups                    2                       # Number of BTB lookups
system.cpu.branchPred.BTBHits                       0                       # Number of BTB hits
system.cpu.branchPred.BTBCorrect                    0                       # Number of correct BTB predictions (this stat may not work properly.
system.cpu.branchPred.BTBHitPct              0.000000                       # BTB Hit Percentage
system.cpu.branchPred.usedRAS                       0                       # Number of times the RAS was used to get a target.
system.cpu.branchPred.RASInCorrect                  0                       # Number of incorrect RAS predictions.
system.cpu.branchPred.indirectLookups               0                       # Number of indirect predictor lookups.
system.cpu.branchPred.indirectHits                  0                       # Number of indirect target hits.
system.cpu.branchPred.indirectMisses                0                       # Number of indirect misses.
system.cpu.branchPredindirectMispredicted            0                       # Number of mispredicted indirect branches.
system.cpu_voltage_domain.voltage                   1                       # Voltage in Volts
system.cpu_clk_domain.clock                       333                       # Clock period in ticks
system.cpu.dtb.fetch_hits                           0                       # ITB hits
system.cpu.dtb.fetch_misses                         0                       # ITB misses
system.cpu.dtb.fetch_acv                            0                       # ITB acv
system.cpu.dtb.fetch_accesses                       0                       # ITB accesses
system.cpu.dtb.read_hits                            3                       # DTB read hits
system.cpu.dtb.read_misses                          0                       # DTB read misses
system.cpu.dtb.read_acv                             0                       # DTB read access violations
system.cpu.dtb.read_accesses                        3                       # DTB read accesses
system.cpu.dtb.write_hits                          11                       # DTB write hits
system.cpu.dtb.write_misses                         0                       # DTB write misses
system.cpu.dtb.write_acv                            0                       # DTB write access violations
system.cpu.dtb.write_accesses                      11                       # DTB write accesses
system.cpu.dtb.data_hits                           14                       # DTB hits
system.cpu.dtb.data_misses                          0                       # DTB misses
system.cpu.dtb.data_acv                             0                       # DTB access violations
system.cpu.dtb.data_accesses                       14                       # DTB accesses
system.cpu.itb.fetch_hits                           6                       # ITB hits
system.cpu.itb.fetch_misses                         0                       # ITB misses
system.cpu.itb.fetch_acv                            0                       # ITB acv
system.cpu.itb.fetch_accesses                       6                       # ITB accesses
system.cpu.itb.read_hits                            0                       # DTB read hits
system.cpu.itb.read_misses                          0                       # DTB read misses
system.cpu.itb.read_acv                             0                       # DTB read access violations
system.cpu.itb.read_accesses                        0                       # DTB read accesses
system.cpu.itb.write_hits                           0                       # DTB write hits
system.cpu.itb.write_misses                         0                       # DTB write misses
system.cpu.itb.write_acv                            0                       # DTB write access violations
system.cpu.itb.write_accesses                       0                       # DTB write accesses
system.cpu.itb.data_hits                            0                       # DTB hits
system.cpu.itb.data_misses                          0                       # DTB misses
system.cpu.itb.data_acv                             0                       # DTB access violations
system.cpu.itb.data_accesses                        0                       # DTB accesses
system.cpu.workload.num_syscalls                    0                       # Number of system calls
system.cpu.pwrStateResidencyTicks::ON    1114858424268                       # Cumulative time (in ticks) in various power states
system.cpu.numCycles                             1124                       # number of cpu cycles simulated
system.cpu.numWorkItemsStarted                      0                       # number of work items this cpu started
system.cpu.numWorkItemsCompleted                    0                       # number of work items this cpu completed
system.cpu.fetch.icacheStallCycles                 63                       # Number of cycles fetch is stalled on an Icache miss
system.cpu.fetch.Insts                             31                       # Number of instructions fetch has processed
system.cpu.fetch.Branches                           3                       # Number of branches that fetch encountered
system.cpu.fetch.Cycles                             5                       # Number of cycles fetch has run and was not squashing or blocked
system.cpu.fetch.SquashCycles                       5                       # Number of cycles fetch has spent squashing
system.cpu.fetch.PendingDrainCycles                 8                       # Number of cycles fetch has spent waiting on pipes to drain
system.cpu.fetch.CacheLines                         6                       # Number of cache lines fetched
system.cpu.fetch.IcacheSquashes                     3                       # Number of outstanding Icache misses that were squashed
system.cpu.fetch.rateDist::samples                 78                       # Number of instructions fetched each cycle (Total)
system.cpu.fetch.rateDist::mean              0.397436                       # Number of instructions fetched each cycle (Total)
system.cpu.fetch.rateDist::stdev             1.646245                       # Number of instructions fetched each cycle (Total)
system.cpu.fetch.rateDist::underflows               0      0.00%      0.00% # Number of instructions fetched each cycle (Total)
system.cpu.fetch.rateDist::0                       73     93.59%     93.59% # Number of instructions fetched each cycle (Total)
system.cpu.fetch.rateDist::1                        0      0.00%     93.59% # Number of instructions fetched each cycle (Total)
system.cpu.fetch.rateDist::2                        1      1.28%     94.87% # Number of instructions fetched each cycle (Total)
system.cpu.fetch.rateDist::3                        0      0.00%     94.87% # Number of instructions fetched each cycle (Total)
system.cpu.fetch.rateDist::4                        0      0.00%     94.87% # Number of instructions fetched each cycle (Total)
system.cpu.fetch.rateDist::5                        1      1.28%     96.15% # Number of instructions fetched each cycle (Total)
system.cpu.fetch.rateDist::6                        0      0.00%     96.15% # Number of instructions fetched each cycle (Total)
[...]
system.switch_cpus_1.iq.int_inst_queue_writes    350269342                       # Number of integer instruction queue writes
system.switch_cpus_1.iq.int_inst_queue_wakeup_accesses    240857599                       # Number of integer instruction queue wakeup accesses
system.switch_cpus_1.iq.fp_inst_queue_reads      4181892                       # Number of floating instruction queue reads
system.switch_cpus_1.iq.fp_inst_queue_writes      2880756                       # Number of floating instruction queue writes
system.switch_cpus_1.iq.fp_inst_queue_wakeup_accesses      1991427                       # Number of floating instruction queue wakeup accesses
system.switch_cpus_1.iq.int_alu_accesses    258338696                       # Number of integer alu accesses
system.switch_cpus_1.iq.fp_alu_accesses       2117020                       # Number of floating point alu accesses
system.switch_cpus_1.iew.lsq.thread0.forwLoads      2610431                       # Number of loads that had data forwarded from stores
system.switch_cpus_1.iew.lsq.thread0.invAddrLoads            0                       # Number of loads ignored due to an invalid address
system.switch_cpus_1.iew.lsq.thread0.squashedLoads     17963275                       # Number of loads squashed
system.switch_cpus_1.iew.lsq.thread0.ignoredResponses        30867                       # Number of memory responses ignored because the instruction is squashed
system.switch_cpus_1.iew.lsq.thread0.memOrderViolation        35160                       # Number of memory ordering violations
system.switch_cpus_1.iew.lsq.thread0.squashedStores      5627739                       # Number of stores squashed
system.switch_cpus_1.iew.lsq.thread0.invAddrSwpfs            0                       # Number of software prefetches ignored due to an invalid address
system.switch_cpus_1.iew.lsq.thread0.blockedLoads            0                       # Number of blocked loads due to partial load-store forwarding
system.switch_cpus_1.iew.lsq.thread0.rescheduledLoads         9538                       # Number of loads that were rescheduled
system.switch_cpus_1.iew.lsq.thread0.cacheBlocked      1503008                       # Number of times an access to memory failed due to the cache being blocked
system.switch_cpus_1.iew.iewIdleCycles              0                       # Number of cycles IEW is idle
system.switch_cpus_1.iew.iewSquashCycles      3778606                       # Number of cycles IEW is squashing
system.switch_cpus_1.iew.iewBlockCycles      10687565                       # Number of cycles IEW is blocking
system.switch_cpus_1.iew.iewUnblockCycles      2254452                       # Number of cycles IEW is unblocking
system.switch_cpus_1.iew.iewDispatchedInsts    283397274                       # Number of instructions dispatched to IQ
system.switch_cpus_1.iew.iewDispSquashedInsts      1400351                       # Number of squashed instructions skipped by dispatch
system.switch_cpus_1.iew.iewDispLoadInsts     62085029                       # Number of dispatched load instructions
system.switch_cpus_1.iew.iewDispStoreInsts     27927584                       # Number of dispatched store instructions
system.switch_cpus_1.iew.iewDispNonSpecInsts          178                       # Number of dispatched non-speculative instructions
system.switch_cpus_1.iew.iewIQFullEvents        25041                       # Number of times the IQ has become full, causing a stall
system.switch_cpus_1.iew.iewLSQFullEvents      2183287                       # Number of times the LSQ has become full, causing a stall
system.switch_cpus_1.iew.memOrderViolationEvents        35160                       # Number of memory order violations
system.switch_cpus_1.iew.predictedTakenIncorrect      2203707                       # Number of branches that were predicted taken incorrectly
system.switch_cpus_1.iew.predictedNotTakenIncorrect      1991290                       # Number of branches that were predicted not taken incorrectly
system.switch_cpus_1.iew.branchMispredicts      4194997                       # Number of branch mispredicts detected at execute
system.switch_cpus_1.iew.iewExecutedInsts    248932131                       # Number of executed instructions
system.switch_cpus_1.iew.iewExecLoadInsts     57861721                       # Number of load instructions executed
system.switch_cpus_1.iew.iewExecSquashedInsts      6185737                       # Number of squashed instructions skipped in execute
system.switch_cpus_1.iew.exec_swp                   0                       # number of swp insts executed
system.switch_cpus_1.iew.exec_nop             6838428                       # number of nop insts executed
system.switch_cpus_1.iew.exec_refs           83068560                       # number of memory reference insts executed
system.switch_cpus_1.iew.exec_branches       36324703                       # Number of branches executed
system.switch_cpus_1.iew.exec_stores         25206839                       # Number of stores executed
system.switch_cpus_1.iew.exec_rate           1.416036                       # Inst execution rate
system.switch_cpus_1.iew.wb_sent            244474001                       # cumulative count of insts sent to commit
system.switch_cpus_1.iew.wb_count           242849026                       # cumulative count of insts written-back
system.switch_cpus_1.iew.wb_producers       136860547                       # num instructions producing a value
system.switch_cpus_1.iew.wb_consumers       173148029                       # num instructions consuming a value
system.switch_cpus_1.iew.wb_rate             1.381433                       # insts written-back per cycle
system.switch_cpus_1.iew.wb_fanout           0.790425                       # average fanout of values written-back
system.switch_cpus_1.commit.commitSquashedInsts     77071734                       # The number of squashed insts skipped by commit
system.switch_cpus_1.commit.commitNonSpecStalls          176                       # The number of times commit has been forced to stall to communicate backwards
system.switch_cpus_1.commit.branchMispredicts      3684873                       # The number of times a branch was mispredicted
system.switch_cpus_1.commit.committed_per_cycle::samples    156007615                       # Number of insts commited each cycle
system.switch_cpus_1.commit.committed_per_cycle::mean     1.316302                       # Number of insts commited each cycle
system.switch_cpus_1.commit.committed_per_cycle::stdev     2.370240                       # Number of insts commited each cycle
system.switch_cpus_1.commit.committed_per_cycle::underflows            0      0.00%      0.00% # Number of insts commited each cycle
system.switch_cpus_1.commit.committed_per_cycle::0     94781874     60.75%     60.75% # Number of insts commited each cycle
system.switch_cpus_1.commit.committed_per_cycle::1     25372704     16.26%     77.02% # Number of insts commited each cycle
system.switch_cpus_1.commit.committed_per_cycle::2      8762280      5.62%     82.63% # Number of insts commited each cycle
system.switch_cpus_1.commit.committed_per_cycle::3      5225417      3.35%     85.98% # Number of insts commited each cycle
system.switch_cpus_1.commit.committed_per_cycle::4      3427114      2.20%     88.18% # Number of insts commited each cycle
system.switch_cpus_1.commit.committed_per_cycle::5      2721818      1.74%     89.93% # Number of insts commited each cycle
system.switch_cpus_1.commit.committed_per_cycle::6      2310694      1.48%     91.41% # Number of insts commited each cycle
system.switch_cpus_1.commit.committed_per_cycle::7      1647830      1.06%     92.46% # Number of insts commited each cycle
system.switch_cpus_1.commit.committed_per_cycle::8     11757884      7.54%    100.00% # Number of insts commited each cycle
system.switch_cpus_1.commit.committed_per_cycle::overflows            0      0.00%    100.00% # Number of insts commited each cycle
system.switch_cpus_1.commit.committed_per_cycle::min_value            0                       # Number of insts commited each cycle
system.switch_cpus_1.commit.committed_per_cycle::max_value            8                       # Number of insts commited each cycle
system.switch_cpus_1.commit.committed_per_cycle::total    156007615                       # Number of insts commited each cycle
system.switch_cpus_1.commit.committedInsts    205353107                       # Number of instructions committed
system.switch_cpus_1.commit.committedOps    205353107                       # Number of ops (including micro ops) committed
system.switch_cpus_1.commit.swp_count               0                       # Number of s/w prefetches committed
system.switch_cpus_1.commit.refs             66421579                       # Number of memory references committed
system.switch_cpus_1.commit.loads            44121734                       # Number of loads committed
system.switch_cpus_1.commit.membars                88                       # Number of memory barriers committed
system.switch_cpus_1.commit.branches         30359423                       # Number of branches committed
system.switch_cpus_1.commit.fp_insts          1786208                       # Number of committed floating point instructions.
system.switch_cpus_1.commit.int_insts       197426184                       # Number of committed integer instructions.
system.switch_cpus_1.commit.function_calls      1752736                       # Number of function calls committed.
system.switch_cpus_1.commit.op_class_0::No_OpClass      5447375      2.65%      2.65% # Class of committed instruction
system.switch_cpus_1.commit.op_class_0::IntAlu    132113930     64.34%     66.99% # Class of committed instruction
system.switch_cpus_1.commit.op_class_0::IntMult        79596      0.04%     67.03% # Class of committed instruction
system.switch_cpus_1.commit.op_class_0::IntDiv            0      0.00%     67.03% # Class of committed instruction
system.switch_cpus_1.commit.op_class_0::FloatAdd       635244      0.31%     67.34% # Class of committed instruction
system.switch_cpus_1.commit.op_class_0::FloatCmp       335099      0.16%     67.50% # Class of committed instruction
system.switch_cpus_1.commit.op_class_0::FloatCvt       272825      0.13%     67.63% # Class of committed instruction
system.switch_cpus_1.commit.op_class_0::FloatMult            0      0.00%     67.63% # Class of committed instruction
system.switch_cpus_1.commit.op_class_0::FloatMultAcc            0      0.00%     67.63% # Class of committed instruction
system.switch_cpus_1.commit.op_class_0::FloatDiv        47371      0.02%     67.65% # Class of committed instruction
system.switch_cpus_1.commit.op_class_0::FloatMisc            0      0.00%     67.65% # Class of committed instruction
system.switch_cpus_1.commit.op_class_0::FloatSqrt            0      0.00%     67.65% # Class of committed instruction
system.switch_cpus_1.commit.op_class_0::SimdAdd            0      0.00%     67.65% # Class of committed instruction
system.switch_cpus_1.commit.op_class_0::SimdAddAcc            0      0.00%     67.65% # Class of committed instruction
system.switch_cpus_1.commit.op_class_0::SimdAlu            0      0.00%     67.65% # Class of committed instruction
system.switch_cpus_1.commit.op_class_0::SimdCmp            0      0.00%     67.65% # Class of committed instruction
system.switch_cpus_1.commit.op_class_0::SimdCvt            0      0.00%     67.65% # Class of committed instruction
system.switch_cpus_1.commit.op_class_0::SimdMisc            0      0.00%     67.65% # Class of committed instruction
system.switch_cpus_1.commit.op_class_0::SimdMult            0      0.00%     67.65% # Class of committed instruction
system.switch_cpus_1.commit.op_class_0::SimdMultAcc            0      0.00%     67.65% # Class of committed instruction
system.switch_cpus_1.commit.op_class_0::SimdShift            0      0.00%     67.65% # Class of committed instruction
system.switch_cpus_1.commit.op_class_0::SimdShiftAcc            0      0.00%     67.65% # Class of committed instruction
system.switch_cpus_1.commit.op_class_0::SimdSqrt            0      0.00%     67.65% # Class of committed instruction
system.switch_cpus_1.commit.op_class_0::SimdFloatAdd            0      0.00%     67.65% # Class of committed instruction
system.switch_cpus_1.commit.op_class_0::SimdFloatAlu            0      0.00%     67.65% # Class of committed instruction
system.switch_cpus_1.commit.op_class_0::SimdFloatCmp            0      0.00%     67.65% # Class of committed instruction
system.switch_cpus_1.commit.op_class_0::SimdFloatCvt            0      0.00%     67.65% # Class of committed instruction
system.switch_cpus_1.commit.op_class_0::SimdFloatDiv            0      0.00%     67.65% # Class of committed instruction
system.switch_cpus_1.commit.op_class_0::SimdFloatMisc            0      0.00%     67.65% # Class of committed instruction
system.switch_cpus_1.commit.op_class_0::SimdFloatMult            0      0.00%     67.65% # Class of committed instruction
system.switch_cpus_1.commit.op_class_0::SimdFloatMultAcc            0      0.00%     67.65% # Class of committed instruction
system.switch_cpus_1.commit.op_class_0::SimdFloatSqrt            0      0.00%     67.65% # Class of committed instruction
system.switch_cpus_1.commit.op_class_0::MemRead     43815278     21.34%     88.99% # Class of committed instruction
system.switch_cpus_1.commit.op_class_0::MemWrite     22110720     10.77%     99.76% # Class of committed instruction
system.switch_cpus_1.commit.op_class_0::FloatMemRead       306544      0.15%     99.91% # Class of committed instruction
system.switch_cpus_1.commit.op_class_0::FloatMemWrite       189125      0.09%    100.00% # Class of committed instruction
system.switch_cpus_1.commit.op_class_0::IprAccess            0      0.00%    100.00% # Class of committed instruction
system.switch_cpus_1.commit.op_class_0::InstPrefetch            0      0.00%    100.00% # Class of committed instruction
system.switch_cpus_1.commit.op_class_0::total    205353107                       # Class of committed instruction
system.switch_cpus_1.commit.bw_lim_events     11757884                       # number cycles where commit BW limit reached
system.switch_cpus_1.rob.rob_reads          425784085                       # The number of ROB reads
system.switch_cpus_1.rob.rob_writes         576787220                       # The number of ROB writes
system.switch_cpus_1.timesIdled               1010009                       # Number of times that the entire CPU went into an idle state and unscheduled itself
system.switch_cpus_1.idleCycles               7934214                       # Total number of cycles that the CPU has spent unscheduled due to idling
system.switch_cpus_1.committedInsts         200000006                       # Number of Instructions Simulated
system.switch_cpus_1.committedOps           200000006                       # Number of Ops (including micro ops) Simulated
system.switch_cpus_1.cpi                     0.878975                       # CPI: Cycles Per Instruction
system.switch_cpus_1.cpi_total               0.878975                       # CPI: Total CPI of All Threads
system.switch_cpus_1.ipc                     1.137689                       # IPC: Instructions Per Cycle
system.switch_cpus_1.ipc_total               1.137689                       # IPC: Total IPC of All Threads
system.switch_cpus_1.int_regfile_reads      333943184                       # number of integer regfile reads
system.switch_cpus_1.int_regfile_writes     183310700                       # number of integer regfile writes
system.switch_cpus_1.fp_regfile_reads         2122420                       # number of floating regfile reads
system.switch_cpus_1.fp_regfile_writes        1274674                       # number of floating regfile writes
system.switch_cpus_1.misc_regfile_reads         94472                       # number of misc regfile reads
system.switch_cpus_1.misc_regfile_writes        47313                       # number of misc regfile writes
system.tol3bus.snoop_filter.tot_requests      2929130                       # Total number of requests made to the snoop filter.
system.tol3bus.snoop_filter.hit_single_requests      1462526                       # Number of requests hitting in the snoop filter with a single holder of the requested data.
system.tol3bus.snoop_filter.hit_multi_requests            0                       # Number of requests hitting in the snoop filter with multiple (>1) holders of the requested data.
system.tol3bus.snoop_filter.tot_snoops           1033                       # Total number of snoops made to the snoop filter.
system.tol3bus.snoop_filter.hit_single_snoops         1033                       # Number of snoops hitting in the snoop filter with a single holder of the requested data.
system.tol3bus.snoop_filter.hit_multi_snoops            0                       # Number of snoops hitting in the snoop filter with multiple (>1) holders of the requested data.
system.tol3bus.pwrStateResidencyTicks::UNDEFINED 18768199815198                       # Cumulative time (in ticks) in various power states
system.tol3bus.trans_dist::ReadResp           1040778                       # Transaction distribution
system.tol3bus.trans_dist::WritebackDirty      1014762                       # Transaction distribution
system.tol3bus.trans_dist::CleanEvict          680051                       # Transaction distribution
system.tol3bus.trans_dist::ReadExReq           425826                       # Transaction distribution
system.tol3bus.trans_dist::ReadExResp          425826                       # Transaction distribution
system.tol3bus.trans_dist::ReadSharedReq      1040778                       # Transaction distribution
system.tol3bus.pkt_count_system.cpu.l2.mem_side::system.l3.cpu_side      4395734                       # Packet count per connected master and slave (bytes)
system.tol3bus.pkt_size_system.cpu.l2.mem_side::system.l3.cpu_side    147056640                       # Cumulative packet size per connected master and slave (bytes)
system.tol3bus.snoops                          232287                       # Total snoops (count)
system.tol3bus.snoopTraffic                  11750784                       # Total snoop traffic (bytes)
system.tol3bus.snoop_fanout::samples          1698891                       # Request fanout histogram
system.tol3bus.snoop_fanout::mean            0.000608                       # Request fanout histogram
system.tol3bus.snoop_fanout::stdev           0.024651                       # Request fanout histogram
system.tol3bus.snoop_fanout::underflows             0      0.00%      0.00% # Request fanout histogram
system.tol3bus.snoop_fanout::0                1697858     99.94%     99.94% # Request fanout histogram
system.tol3bus.snoop_fanout::1                   1033      0.06%    100.00% # Request fanout histogram
system.tol3bus.snoop_fanout::overflows              0      0.00%    100.00% # Request fanout histogram
system.tol3bus.snoop_fanout::min_value              0                       # Request fanout histogram
system.tol3bus.snoop_fanout::max_value              1                       # Request fanout histogram
system.tol3bus.snoop_fanout::total            1698891                       # Request fanout histogram
system.tol3bus.reqLayer0.occupancy         1252175238                       # Layer occupancy (ticks)
system.tol3bus.reqLayer0.utilization              0.1                       # Layer utilization (%)
system.tol3bus.respLayer0.occupancy         976758264                       # Layer occupancy (ticks)
system.tol3bus.respLayer0.utilization             0.1                       # Layer utilization (%)

---------- End Simulation Statistics   ----------
