
---------- Begin Simulation Statistics ----------
sim_seconds                                  1.434992                       # Number of seconds simulated
sim_ticks                                1434992445992                       # Number of ticks simulated
final_tick                               191486302360992                       # Number of ticks from beginning of simulation (restored from checkpoints and never reset)
sim_freq                                 1000000000000                       # Frequency of simulated ticks
host_inst_rate                                 406244                       # Simulator instruction rate (inst/s)
host_op_rate                                   406244                       # Simulator op (including micro ops) rate (op/s)
host_tick_rate                              485797065                       # Simulator tick rate (ticks/s)
host_mem_usage                                2538936                       # Number of bytes of host memory used
host_seconds                                  2953.89                       # Real time elapsed on the host
sim_insts                                  1200000007                       # Number of instructions simulated
sim_ops                                    1200000007                       # Number of ops (including micro ops) simulated
system.voltage_domain.voltage                       1                       # Voltage in Volts
system.clk_domain.clock                          1000                       # Clock period in ticks
system.mem_ctrls0.pwrStateResidencyTicks::UNDEFINED 191486302360992                       # Cumulative time (in ticks) in various power states
system.mem_ctrls0.bytes_read::cpu.inst            192                       # Number of bytes read from this memory
system.mem_ctrls0.bytes_read::cpu.data            192                       # Number of bytes read from this memory
system.mem_ctrls0.bytes_read::switch_cpus.inst        12992                       # Number of bytes read from this memory
system.mem_ctrls0.bytes_read::switch_cpus.data     19583104                       # Number of bytes read from this memory
system.mem_ctrls0.bytes_read::switch_cpus_1.inst          384                       # Number of bytes read from this memory
system.mem_ctrls0.bytes_read::switch_cpus_1.data      4106624                       # Number of bytes read from this memory
system.mem_ctrls0.bytes_read::total          23703488                       # Number of bytes read from this memory
system.mem_ctrls0.bytes_inst_read::cpu.inst          192                       # Number of instructions bytes read from this memory
system.mem_ctrls0.bytes_inst_read::switch_cpus.inst        12992                       # Number of instructions bytes read from this memory
system.mem_ctrls0.bytes_inst_read::switch_cpus_1.inst          384                       # Number of instructions bytes read from this memory
system.mem_ctrls0.bytes_inst_read::total        13568                       # Number of instructions bytes read from this memory
system.mem_ctrls0.bytes_written::writebacks     15758592                       # Number of bytes written to this memory
system.mem_ctrls0.bytes_written::total       15758592                       # Number of bytes written to this memory
system.mem_ctrls0.num_reads::cpu.inst               3                       # Number of read requests responded to by this memory
system.mem_ctrls0.num_reads::cpu.data               3                       # Number of read requests responded to by this memory
system.mem_ctrls0.num_reads::switch_cpus.inst          203                       # Number of read requests responded to by this memory
system.mem_ctrls0.num_reads::switch_cpus.data       305986                       # Number of read requests responded to by this memory
system.mem_ctrls0.num_reads::switch_cpus_1.inst            6                       # Number of read requests responded to by this memory
system.mem_ctrls0.num_reads::switch_cpus_1.data        64166                       # Number of read requests responded to by this memory
system.mem_ctrls0.num_reads::total             370367                       # Number of read requests responded to by this memory
system.mem_ctrls0.num_writes::writebacks       246228                       # Number of write requests responded to by this memory
system.mem_ctrls0.num_writes::total            246228                       # Number of write requests responded to by this memory
system.mem_ctrls0.bw_read::cpu.inst               134                       # Total read bandwidth from this memory (bytes/s)
system.mem_ctrls0.bw_read::cpu.data               134                       # Total read bandwidth from this memory (bytes/s)
system.mem_ctrls0.bw_read::switch_cpus.inst         9054                       # Total read bandwidth from this memory (bytes/s)
system.mem_ctrls0.bw_read::switch_cpus.data     13646834                       # Total read bandwidth from this memory (bytes/s)
system.mem_ctrls0.bw_read::switch_cpus_1.inst          268                       # Total read bandwidth from this memory (bytes/s)
system.mem_ctrls0.bw_read::switch_cpus_1.data      2861774                       # Total read bandwidth from this memory (bytes/s)
system.mem_ctrls0.bw_read::total             16518197                       # Total read bandwidth from this memory (bytes/s)
system.mem_ctrls0.bw_inst_read::cpu.inst          134                       # Instruction read bandwidth from this memory (bytes/s)
system.mem_ctrls0.bw_inst_read::switch_cpus.inst         9054                       # Instruction read bandwidth from this memory (bytes/s)
system.mem_ctrls0.bw_inst_read::switch_cpus_1.inst          268                       # Instruction read bandwidth from this memory (bytes/s)
system.mem_ctrls0.bw_inst_read::total            9455                       # Instruction read bandwidth from this memory (bytes/s)
system.mem_ctrls0.bw_write::writebacks       10981655                       # Write bandwidth from this memory (bytes/s)
system.mem_ctrls0.bw_write::total            10981655                       # Write bandwidth from this memory (bytes/s)
system.mem_ctrls0.bw_total::writebacks       10981655                       # Total bandwidth to/from this memory (bytes/s)
system.mem_ctrls0.bw_total::cpu.inst              134                       # Total bandwidth to/from this memory (bytes/s)
system.mem_ctrls0.bw_total::cpu.data              134                       # Total bandwidth to/from this memory (bytes/s)
system.mem_ctrls0.bw_total::switch_cpus.inst         9054                       # Total bandwidth to/from this memory (bytes/s)
system.mem_ctrls0.bw_total::switch_cpus.data     13646834                       # Total bandwidth to/from this memory (bytes/s)
system.mem_ctrls0.bw_total::switch_cpus_1.inst          268                       # Total bandwidth to/from this memory (bytes/s)
system.mem_ctrls0.bw_total::switch_cpus_1.data      2861774                       # Total bandwidth to/from this memory (bytes/s)
system.mem_ctrls0.bw_total::total            27499852                       # Total bandwidth to/from this memory (bytes/s)
system.mem_ctrls0.readReqs                     370367                       # Number of read requests accepted
system.mem_ctrls0.writeReqs                    246228                       # Number of write requests accepted
system.mem_ctrls0.readBursts                   370367                       # Number of DRAM read bursts, including those serviced by the write queue
system.mem_ctrls0.writeBursts                  246228                       # Number of DRAM write bursts, including those merged in the write queue
system.mem_ctrls0.bytesReadDRAM              23665472                       # Total number of bytes read from DRAM
system.mem_ctrls0.bytesReadWrQ                  38016                       # Total number of bytes read from write queue
system.mem_ctrls0.bytesWritten               15757312                       # Total number of bytes written to DRAM
system.mem_ctrls0.bytesReadSys               23703488                       # Total read bytes from the system interface side
system.mem_ctrls0.bytesWrittenSys            15758592                       # Total written bytes from the system interface side
system.mem_ctrls0.servicedByWrQ                   594                       # Number of DRAM read bursts serviced by the write queue
system.mem_ctrls0.mergedWrBursts                    0                       # Number of DRAM write bursts merged with an existing one
system.mem_ctrls0.neitherReadNorWriteReqs            0                       # Number of requests that are neither read nor write
system.mem_ctrls0.perBankRdBursts::0            24259                       # Per bank write bursts
system.mem_ctrls0.perBankRdBursts::1            23513                       # Per bank write bursts
system.mem_ctrls0.perBankRdBursts::2            24300                       # Per bank write bursts
system.mem_ctrls0.perBankRdBursts::3            23798                       # Per bank write bursts
system.mem_ctrls0.perBankRdBursts::4            21730                       # Per bank write bursts
system.mem_ctrls0.perBankRdBursts::5            22329                       # Per bank write bursts
system.mem_ctrls0.perBankRdBursts::6            22840                       # Per bank write bursts
system.mem_ctrls0.perBankRdBursts::7            23787                       # Per bank write bursts
system.mem_ctrls0.perBankRdBursts::8            24194                       # Per bank write bursts
system.mem_ctrls0.perBankRdBursts::9            22632                       # Per bank write bursts
system.mem_ctrls0.perBankRdBursts::10           23169                       # Per bank write bursts
system.mem_ctrls0.perBankRdBursts::11           22571                       # Per bank write bursts
system.mem_ctrls0.perBankRdBursts::12           21533                       # Per bank write bursts
system.mem_ctrls0.perBankRdBursts::13           22358                       # Per bank write bursts
system.mem_ctrls0.perBankRdBursts::14           22784                       # Per bank write bursts
system.mem_ctrls0.perBankRdBursts::15           23976                       # Per bank write bursts
system.mem_ctrls0.perBankWrBursts::0            16288                       # Per bank write bursts
system.mem_ctrls0.perBankWrBursts::1            15763                       # Per bank write bursts
system.mem_ctrls0.perBankWrBursts::2            16265                       # Per bank write bursts
system.mem_ctrls0.perBankWrBursts::3            15719                       # Per bank write bursts
system.mem_ctrls0.perBankWrBursts::4            14080                       # Per bank write bursts
system.mem_ctrls0.perBankWrBursts::5            14805                       # Per bank write bursts
system.mem_ctrls0.perBankWrBursts::6            15285                       # Per bank write bursts
system.mem_ctrls0.perBankWrBursts::7            15965                       # Per bank write bursts
system.mem_ctrls0.perBankWrBursts::8            16135                       # Per bank write bursts
system.mem_ctrls0.perBankWrBursts::9            15064                       # Per bank write bursts
system.mem_ctrls0.perBankWrBursts::10           15270                       # Per bank write bursts
system.mem_ctrls0.perBankWrBursts::11           14951                       # Per bank write bursts
system.mem_ctrls0.perBankWrBursts::12           14494                       # Per bank write bursts
system.mem_ctrls0.perBankWrBursts::13           14753                       # Per bank write bursts
system.mem_ctrls0.perBankWrBursts::14           15154                       # Per bank write bursts
system.mem_ctrls0.perBankWrBursts::15           16217                       # Per bank write bursts
system.mem_ctrls0.numRdRetry                        0                       # Number of times read queue was full causing retry
system.mem_ctrls0.numWrRetry                        0                       # Number of times write queue was full causing retry
system.mem_ctrls0.totGap                 1434685208337                       # Total gap between requests
system.mem_ctrls0.readPktSize::0                    0                       # Read request sizes (log2)
system.mem_ctrls0.readPktSize::1                    0                       # Read request sizes (log2)
system.mem_ctrls0.readPktSize::2                    0                       # Read request sizes (log2)
system.mem_ctrls0.readPktSize::3                    0                       # Read request sizes (log2)
system.mem_ctrls0.readPktSize::4                    0                       # Read request sizes (log2)
system.mem_ctrls0.readPktSize::5                    0                       # Read request sizes (log2)
system.mem_ctrls0.readPktSize::6               370367                       # Read request sizes (log2)
system.mem_ctrls0.writePktSize::0                   0                       # Write request sizes (log2)
system.mem_ctrls0.writePktSize::1                   0                       # Write request sizes (log2)
system.mem_ctrls0.writePktSize::2                   0                       # Write request sizes (log2)
system.mem_ctrls0.writePktSize::3                   0                       # Write request sizes (log2)
system.mem_ctrls0.writePktSize::4                   0                       # Write request sizes (log2)
system.mem_ctrls0.writePktSize::5                   0                       # Write request sizes (log2)
system.mem_ctrls0.writePktSize::6              246228                       # Write request sizes (log2)
system.mem_ctrls0.rdQLenPdf::0                 364476                       # What read queue length does an incoming req see
system.mem_ctrls0.rdQLenPdf::1                   5209                       # What read queue length does an incoming req see
system.mem_ctrls0.rdQLenPdf::2                     78                       # What read queue length does an incoming req see
system.mem_ctrls0.rdQLenPdf::3                      9                       # What read queue length does an incoming req see
system.mem_ctrls0.rdQLenPdf::4                      1                       # What read queue length does an incoming req see
system.mem_ctrls0.rdQLenPdf::5                      0                       # What read queue length does an incoming req see
system.mem_ctrls0.rdQLenPdf::6                      0                       # What read queue length does an incoming req see
system.mem_ctrls0.rdQLenPdf::7                      0                       # What read queue length does an incoming req see
system.mem_ctrls0.rdQLenPdf::8                      0                       # What read queue length does an incoming req see
system.mem_ctrls0.rdQLenPdf::9                      0                       # What read queue length does an incoming req see
system.mem_ctrls0.rdQLenPdf::10                     0                       # What read queue length does an incoming req see
system.mem_ctrls0.rdQLenPdf::11                     0                       # What read queue length does an incoming req see
system.mem_ctrls0.rdQLenPdf::12                     0                       # What read queue length does an incoming req see
system.mem_ctrls0.rdQLenPdf::13                     0                       # What read queue length does an incoming req see
system.mem_ctrls0.rdQLenPdf::14                     0                       # What read queue length does an incoming req see
system.mem_ctrls0.rdQLenPdf::15                     0                       # What read queue length does an incoming req see
system.mem_ctrls0.rdQLenPdf::16                     0                       # What read queue length does an incoming req see
system.mem_ctrls0.rdQLenPdf::17                     0                       # What read queue length does an incoming req see
system.mem_ctrls0.rdQLenPdf::18                     0                       # What read queue length does an incoming req see
system.mem_ctrls0.rdQLenPdf::19                     0                       # What read queue length does an incoming req see
system.mem_ctrls0.rdQLenPdf::20                     0                       # What read queue length does an incoming req see
system.mem_ctrls0.rdQLenPdf::21                     0                       # What read queue length does an incoming req see
system.mem_ctrls0.rdQLenPdf::22                     0                       # What read queue length does an incoming req see
system.mem_ctrls0.rdQLenPdf::23                     0                       # What read queue length does an incoming req see
system.mem_ctrls0.rdQLenPdf::24                     0                       # What read queue length does an incoming req see
system.mem_ctrls0.rdQLenPdf::25                     0                       # What read queue length does an incoming req see
system.mem_ctrls0.rdQLenPdf::26                     0                       # What read queue length does an incoming req see
system.mem_ctrls0.rdQLenPdf::27                     0                       # What read queue length does an incoming req see
system.mem_ctrls0.rdQLenPdf::28                     0                       # What read queue length does an incoming req see
system.mem_ctrls0.rdQLenPdf::29                     0                       # What read queue length does an incoming req see
system.mem_ctrls0.rdQLenPdf::30                     0                       # What read queue length does an incoming req see
system.mem_ctrls0.rdQLenPdf::31                     0                       # What read queue length does an incoming req see
system.mem_ctrls0.wrQLenPdf::0                      2                       # What write queue length does an incoming req see
system.mem_ctrls0.wrQLenPdf::1                      2                       # What write queue length does an incoming req see
system.mem_ctrls0.wrQLenPdf::2                      2                       # What write queue length does an incoming req see
system.mem_ctrls0.wrQLenPdf::3                      2                       # What write queue length does an incoming req see
system.mem_ctrls0.wrQLenPdf::4                      2                       # What write queue length does an incoming req see
system.mem_ctrls0.wrQLenPdf::5                      2                       # What write queue length does an incoming req see
system.mem_ctrls0.wrQLenPdf::6                      2                       # What write queue length does an incoming req see
system.mem_ctrls0.wrQLenPdf::7                      2                       # What write queue length does an incoming req see
system.mem_ctrls0.wrQLenPdf::8                      2                       # What write queue length does an incoming req see
system.mem_ctrls0.wrQLenPdf::9                      2                       # What write queue length does an incoming req see
system.mem_ctrls0.wrQLenPdf::10                     2                       # What write queue length does an incoming req see
system.mem_ctrls0.wrQLenPdf::11                     2                       # What write queue length does an incoming req see
system.mem_ctrls0.wrQLenPdf::12                     2                       # What write queue length does an incoming req see
system.mem_ctrls0.wrQLenPdf::13                     2                       # What write queue length does an incoming req see
system.mem_ctrls0.wrQLenPdf::14                     2                       # What write queue length does an incoming req see
system.mem_ctrls0.wrQLenPdf::15                 11322                       # What write queue length does an incoming req see
system.mem_ctrls0.wrQLenPdf::16                 11532                       # What write queue length does an incoming req see
system.mem_ctrls0.wrQLenPdf::17                 13618                       # What write queue length does an incoming req see
system.mem_ctrls0.wrQLenPdf::18                 13946                       # What write queue length does an incoming req see
system.mem_ctrls0.wrQLenPdf::19                 13976                       # What write queue length does an incoming req see
system.mem_ctrls0.wrQLenPdf::20                 13968                       # What write queue length does an incoming req see
system.mem_ctrls0.wrQLenPdf::21                 13984                       # What write queue length does an incoming req see
system.mem_ctrls0.wrQLenPdf::22                 14045                       # What write queue length does an incoming req see
system.mem_ctrls0.wrQLenPdf::23                 14059                       # What write queue length does an incoming req see
system.mem_ctrls0.wrQLenPdf::24                 14003                       # What write queue length does an incoming req see
system.mem_ctrls0.wrQLenPdf::25                 14000                       # What write queue length does an incoming req see
system.mem_ctrls0.wrQLenPdf::26                 13998                       # What write queue length does an incoming req see
system.mem_ctrls0.wrQLenPdf::27                 13979                       # What write queue length does an incoming req see
system.mem_ctrls0.wrQLenPdf::28                 13949                       # What write queue length does an incoming req see
system.mem_ctrls0.wrQLenPdf::29                 13947                       # What write queue length does an incoming req see
system.mem_ctrls0.wrQLenPdf::30                 13989                       # What write queue length does an incoming req see
system.mem_ctrls0.wrQLenPdf::31                 13915                       # What write queue length does an incoming req see
system.mem_ctrls0.wrQLenPdf::32                 13904                       # What write queue length does an incoming req see
system.mem_ctrls0.wrQLenPdf::33                    57                       # What write queue length does an incoming req see
system.mem_ctrls0.wrQLenPdf::34                     6                       # What write queue length does an incoming req see
system.mem_ctrls0.wrQLenPdf::35                     1                       # What write queue length does an incoming req see
system.mem_ctrls0.wrQLenPdf::36                     0                       # What write queue length does an incoming req see
system.mem_ctrls0.wrQLenPdf::37                     0                       # What write queue length does an incoming req see
system.mem_ctrls0.wrQLenPdf::38                     0                       # What write queue length does an incoming req see
system.mem_ctrls0.wrQLenPdf::39                     0                       # What write queue length does an incoming req see
system.mem_ctrls0.wrQLenPdf::40                     0                       # What write queue length does an incoming req see
system.mem_ctrls0.wrQLenPdf::41                     0                       # What write queue length does an incoming req see
system.mem_ctrls0.wrQLenPdf::42                     0                       # What write queue length does an incoming req see
system.mem_ctrls0.wrQLenPdf::43                     0                       # What write queue length does an incoming req see
system.mem_ctrls0.wrQLenPdf::44                     0                       # What write queue length does an incoming req see
system.mem_ctrls0.wrQLenPdf::45                     0                       # What write queue length does an incoming req see
system.mem_ctrls0.wrQLenPdf::46                     0                       # What write queue length does an incoming req see
system.mem_ctrls0.wrQLenPdf::47                     0                       # What write queue length does an incoming req see
system.mem_ctrls0.wrQLenPdf::48                     0                       # What write queue length does an incoming req see
system.mem_ctrls0.wrQLenPdf::49                     0                       # What write queue length does an incoming req see
system.mem_ctrls0.wrQLenPdf::50                     0                       # What write queue length does an incoming req see
system.mem_ctrls0.wrQLenPdf::51                     0                       # What write queue length does an incoming req see
system.mem_ctrls0.wrQLenPdf::52                     0                       # What write queue length does an incoming req see
system.mem_ctrls0.wrQLenPdf::53                     0                       # What write queue length does an incoming req see
system.mem_ctrls0.wrQLenPdf::54                     0                       # What write queue length does an incoming req see
system.mem_ctrls0.wrQLenPdf::55                     0                       # What write queue length does an incoming req see
system.mem_ctrls0.wrQLenPdf::56                     0                       # What write queue length does an incoming req see
system.mem_ctrls0.wrQLenPdf::57                     0                       # What write queue length does an incoming req see
system.mem_ctrls0.wrQLenPdf::58                     0                       # What write queue length does an incoming req see
system.mem_ctrls0.wrQLenPdf::59                     0                       # What write queue length does an incoming req see
system.mem_ctrls0.wrQLenPdf::60                     0                       # What write queue length does an incoming req see
system.mem_ctrls0.wrQLenPdf::61                     0                       # What write queue length does an incoming req see
system.mem_ctrls0.wrQLenPdf::62                     0                       # What write queue length does an incoming req see
system.mem_ctrls0.wrQLenPdf::63                     0                       # What write queue length does an incoming req see
system.mem_ctrls0.bytesPerActivate::samples       393852                       # Bytes accessed per row activation
system.mem_ctrls0.bytesPerActivate::mean   100.095427                       # Bytes accessed per row activation
system.mem_ctrls0.bytesPerActivate::gmean    82.734580                       # Bytes accessed per row activation
system.mem_ctrls0.bytesPerActivate::stdev   101.179459                       # Bytes accessed per row activation
system.mem_ctrls0.bytesPerActivate::0-127       295523     75.03%     75.03% # Bytes accessed per row activation
system.mem_ctrls0.bytesPerActivate::128-255        74754     18.98%     94.01% # Bytes accessed per row activation
system.mem_ctrls0.bytesPerActivate::256-383        13655      3.47%     97.48% # Bytes accessed per row activation
system.mem_ctrls0.bytesPerActivate::384-511         4841      1.23%     98.71% # Bytes accessed per row activation
system.mem_ctrls0.bytesPerActivate::512-639         1464      0.37%     99.08% # Bytes accessed per row activation
system.mem_ctrls0.bytesPerActivate::640-767          894      0.23%     99.31% # Bytes accessed per row activation
system.mem_ctrls0.bytesPerActivate::768-895          660      0.17%     99.48% # Bytes accessed per row activation
system.mem_ctrls0.bytesPerActivate::896-1023          524      0.13%     99.61% # Bytes accessed per row activation
system.mem_ctrls0.bytesPerActivate::1024-1151         1537      0.39%    100.00% # Bytes accessed per row activation
system.mem_ctrls0.bytesPerActivate::total       393852                       # Bytes accessed per row activation
system.mem_ctrls0.rdPerTurnAround::samples        13896                       # Reads before turning the bus around for writes
system.mem_ctrls0.rdPerTurnAround::mean     26.607081                       # Reads before turning the bus around for writes
system.mem_ctrls0.rdPerTurnAround::stdev   243.199756                       # Reads before turning the bus around for writes
system.mem_ctrls0.rdPerTurnAround::0-1023        13895     99.99%     99.99% # Reads before turning the bus around for writes
system.mem_ctrls0.rdPerTurnAround::27648-28671            1      0.01%    100.00% # Reads before turning the bus around for writes
system.mem_ctrls0.rdPerTurnAround::total        13896                       # Reads before turning the bus around for writes
system.mem_ctrls0.wrPerTurnAround::samples        13896                       # Writes before turning the bus around for reads
system.mem_ctrls0.wrPerTurnAround::mean     17.717904                       # Writes before turning the bus around for reads
system.mem_ctrls0.wrPerTurnAround::gmean    17.696725                       # Writes before turning the bus around for reads
system.mem_ctrls0.wrPerTurnAround::stdev     0.852158                       # Writes before turning the bus around for reads
system.mem_ctrls0.wrPerTurnAround::16            2412     17.36%     17.36% # Writes before turning the bus around for reads
system.mem_ctrls0.wrPerTurnAround::17             138      0.99%     18.35% # Writes before turning the bus around for reads
system.mem_ctrls0.wrPerTurnAround::18           10429     75.05%     93.40% # Writes before turning the bus around for reads
system.mem_ctrls0.wrPerTurnAround::19             820      5.90%     99.30% # Writes before turning the bus around for reads
system.mem_ctrls0.wrPerTurnAround::20              83      0.60%     99.90% # Writes before turning the bus around for reads
system.mem_ctrls0.wrPerTurnAround::21               7      0.05%     99.95% # Writes before turning the bus around for reads
system.mem_ctrls0.wrPerTurnAround::22               4      0.03%     99.98% # Writes before turning the bus around for reads
system.mem_ctrls0.wrPerTurnAround::23               2      0.01%     99.99% # Writes before turning the bus around for reads
system.mem_ctrls0.wrPerTurnAround::27               1      0.01%    100.00% # Writes before turning the bus around for reads
system.mem_ctrls0.wrPerTurnAround::total        13896                       # Writes before turning the bus around for reads
system.mem_ctrls0.totQLat                 19560498367                       # Total ticks spent queuing
system.mem_ctrls0.totMemAccLat            26493742117                       # Total ticks spent from burst creation until serviced by the DRAM
system.mem_ctrls0.totBusLat                1848865000                       # Total ticks spent in databus transfers
system.mem_ctrls0.avgQLat                    52898.67                       # Average queueing delay per DRAM burst
system.mem_ctrls0.avgBusLat                   5000.00                       # Average bus latency per DRAM burst
system.mem_ctrls0.avgMemAccLat               71648.67                       # Average memory access latency per DRAM burst
system.mem_ctrls0.avgRdBW                       16.49                       # Average DRAM read bandwidth in MiByte/s
system.mem_ctrls0.avgWrBW                       10.98                       # Average achieved write bandwidth in MiByte/s
system.mem_ctrls0.avgRdBWSys                    16.52                       # Average system read bandwidth in MiByte/s
system.mem_ctrls0.avgWrBWSys                    10.98                       # Average system write bandwidth in MiByte/s
system.mem_ctrls0.peakBW                     12800.00                       # Theoretical peak bandwidth in MiByte/s
system.mem_ctrls0.busUtil                        0.21                       # Data bus utilization in percentage
system.mem_ctrls0.busUtilRead                    0.13                       # Data bus utilization in percentage for reads
system.mem_ctrls0.busUtilWrite                   0.09                       # Data bus utilization in percentage for writes
system.mem_ctrls0.avgRdQLen                      1.00                       # Average read queue length when enqueuing
system.mem_ctrls0.avgWrQLen                     23.20                       # Average write queue length when enqueuing
system.mem_ctrls0.readRowHits                  170285                       # Number of row buffer hits during reads
system.mem_ctrls0.writeRowHits                  51844                       # Number of row buffer hits during writes
system.mem_ctrls0.readRowHitRate                46.05                       # Row buffer hit rate for reads
system.mem_ctrls0.writeRowHitRate               21.06                       # Row buffer hit rate for writes
system.mem_ctrls0.avgGap                   2326786.96                       # Average gap between requests
system.mem_ctrls0.pageHitRate                   36.06                       # Row buffer hit rate, read and write combined
system.mem_ctrls0_0.actEnergy              1416176160                       # Energy for activate commands per rank (pJ)
system.mem_ctrls0_0.preEnergy               752715480                       # Energy for precharge commands per rank (pJ)
system.mem_ctrls0_0.readEnergy             1332009840                       # Energy for read commands per rank (pJ)
system.mem_ctrls0_0.writeEnergy             648167400                       # Energy for write commands per rank (pJ)
system.mem_ctrls0_0.refreshEnergy        50367904080.000008                       # Energy for refresh commands per rank (pJ)
system.mem_ctrls0_0.actBackEnergy         26754731820                       # Energy for active background per rank (pJ)
system.mem_ctrls0_0.preBackEnergy          2411060640                       # Energy for precharge background per rank (pJ)
system.mem_ctrls0_0.actPowerDownEnergy   131985786270                       # Energy for active power-down per rank (pJ)
system.mem_ctrls0_0.prePowerDownEnergy    68303463360                       # Energy for precharge power-down per rank (pJ)
system.mem_ctrls0_0.selfRefreshEnergy    224716627155                       # Energy for self refresh per rank (pJ)
system.mem_ctrls0_0.totalEnergy          508706830785                       # Total energy per rank (pJ)
system.mem_ctrls0_0.averagePower           354.501394                       # Core power per rank (mW)
system.mem_ctrls0_0.totalIdleTime        1369690994180                       # Total Idle time Per DRAM Rank
system.mem_ctrls0_0.memoryStateTime::IDLE   4225398414                       # Time in different power states
system.mem_ctrls0_0.memoryStateTime::REF  21395596000                       # Time in different power states
system.mem_ctrls0_0.memoryStateTime::SREF 902684497742                       # Time in different power states
system.mem_ctrls0_0.memoryStateTime::PRE_PDN 177874015336                       # Time in different power states
system.mem_ctrls0_0.memoryStateTime::ACT  39370561562                       # Time in different power states
system.mem_ctrls0_0.memoryStateTime::ACT_PDN 289442376938                       # Time in different power states
system.mem_ctrls0_1.actEnergy              1395927120                       # Energy for activate commands per rank (pJ)
system.mem_ctrls0_1.preEnergy               741952860                       # Energy for precharge commands per rank (pJ)
system.mem_ctrls0_1.readEnergy             1308169380                       # Energy for read commands per rank (pJ)
system.mem_ctrls0_1.writeEnergy             637038360                       # Energy for write commands per rank (pJ)
system.mem_ctrls0_1.refreshEnergy        51369767280.000008                       # Energy for refresh commands per rank (pJ)
system.mem_ctrls0_1.actBackEnergy         27111223500                       # Energy for active background per rank (pJ)
system.mem_ctrls0_1.preBackEnergy          2446369440                       # Energy for precharge background per rank (pJ)
system.mem_ctrls0_1.actPowerDownEnergy   134235343140                       # Energy for active power-down per rank (pJ)
system.mem_ctrls0_1.prePowerDownEnergy    70150056960                       # Energy for precharge power-down per rank (pJ)
system.mem_ctrls0_1.selfRefreshEnergy    222327035340                       # Energy for self refresh per rank (pJ)
system.mem_ctrls0_1.totalEnergy          511741996290                       # Total energy per rank (pJ)
system.mem_ctrls0_1.averagePower           356.616505                       # Core power per rank (mW)
system.mem_ctrls0_1.totalIdleTime        1368830666594                       # Total Idle time Per DRAM Rank
system.mem_ctrls0_1.memoryStateTime::IDLE   4281371839                       # Time in different power states
system.mem_ctrls0_1.memoryStateTime::REF  21821070000                       # Time in different power states
system.mem_ctrls0_1.memoryStateTime::SREF 892066481742                       # Time in different power states
system.mem_ctrls0_1.memoryStateTime::PRE_PDN 182681549882                       # Time in different power states
system.mem_ctrls0_1.memoryStateTime::ACT  39765684929                       # Time in different power states
system.mem_ctrls0_1.memoryStateTime::ACT_PDN 294376287600                       # Time in different power states
system.mem_ctrls1.pwrStateResidencyTicks::UNDEFINED 191486302360992                       # Cumulative time (in ticks) in various power states
system.mem_ctrls1.bytes_read::cpu.inst            128                       # Number of bytes read from this memory
system.mem_ctrls1.bytes_read::cpu.data             64                       # Number of bytes read from this memory
system.mem_ctrls1.bytes_read::switch_cpus.inst        14144                       # Number of bytes read from this memory
system.mem_ctrls1.bytes_read::switch_cpus.data     19595904                       # Number of bytes read from this memory
system.mem_ctrls1.bytes_read::switch_cpus_1.inst          768                       # Number of bytes read from this memory
system.mem_ctrls1.bytes_read::switch_cpus_1.data      4124288                       # Number of bytes read from this memory
system.mem_ctrls1.bytes_read::total          23735296                       # Number of bytes read from this memory
system.mem_ctrls1.bytes_inst_read::cpu.inst          128                       # Number of instructions bytes read from this memory
system.mem_ctrls1.bytes_inst_read::switch_cpus.inst        14144                       # Number of instructions bytes read from this memory
system.mem_ctrls1.bytes_inst_read::switch_cpus_1.inst          768                       # Number of instructions bytes read from this memory
system.mem_ctrls1.bytes_inst_read::total        15040                       # Number of instructions bytes read from this memory
system.mem_ctrls1.bytes_written::writebacks     15783168                       # Number of bytes written to this memory
system.mem_ctrls1.bytes_written::total       15783168                       # Number of bytes written to this memory
system.mem_ctrls1.num_reads::cpu.inst               2                       # Number of read requests responded to by this memory
system.mem_ctrls1.num_reads::cpu.data               1                       # Number of read requests responded to by this memory
system.mem_ctrls1.num_reads::switch_cpus.inst          221                       # Number of read requests responded to by this memory
system.mem_ctrls1.num_reads::switch_cpus.data       306186                       # Number of read requests responded to by this memory
system.mem_ctrls1.num_reads::switch_cpus_1.inst           12                       # Number of read requests responded to by this memory
system.mem_ctrls1.num_reads::switch_cpus_1.data        64442                       # Number of read requests responded to by this memory
system.mem_ctrls1.num_reads::total             370864                       # Number of read requests responded to by this memory
system.mem_ctrls1.num_writes::writebacks       246612                       # Number of write requests responded to by this memory
system.mem_ctrls1.num_writes::total            246612                       # Number of write requests responded to by this memory
system.mem_ctrls1.bw_read::cpu.inst                89                       # Total read bandwidth from this memory (bytes/s)
system.mem_ctrls1.bw_read::cpu.data                45                       # Total read bandwidth from this memory (bytes/s)
system.mem_ctrls1.bw_read::switch_cpus.inst         9856                       # Total read bandwidth from this memory (bytes/s)
system.mem_ctrls1.bw_read::switch_cpus.data     13655754                       # Total read bandwidth from this memory (bytes/s)
system.mem_ctrls1.bw_read::switch_cpus_1.inst          535                       # Total read bandwidth from this memory (bytes/s)
system.mem_ctrls1.bw_read::switch_cpus_1.data      2874083                       # Total read bandwidth from this memory (bytes/s)
system.mem_ctrls1.bw_read::total             16540363                       # Total read bandwidth from this memory (bytes/s)
system.mem_ctrls1.bw_inst_read::cpu.inst           89                       # Instruction read bandwidth from this memory (bytes/s)
system.mem_ctrls1.bw_inst_read::switch_cpus.inst         9856                       # Instruction read bandwidth from this memory (bytes/s)
system.mem_ctrls1.bw_inst_read::switch_cpus_1.inst          535                       # Instruction read bandwidth from this memory (bytes/s)
system.mem_ctrls1.bw_inst_read::total           10481                       # Instruction read bandwidth from this memory (bytes/s)
system.mem_ctrls1.bw_write::writebacks       10998781                       # Write bandwidth from this memory (bytes/s)
system.mem_ctrls1.bw_write::total            10998781                       # Write bandwidth from this memory (bytes/s)
system.mem_ctrls1.bw_total::writebacks       10998781                       # Total bandwidth to/from this memory (bytes/s)
system.mem_ctrls1.bw_total::cpu.inst               89                       # Total bandwidth to/from this memory (bytes/s)
system.mem_ctrls1.bw_total::cpu.data               45                       # Total bandwidth to/from this memory (bytes/s)
system.mem_ctrls1.bw_total::switch_cpus.inst         9856                       # Total bandwidth to/from this memory (bytes/s)
system.mem_ctrls1.bw_total::switch_cpus.data     13655754                       # Total bandwidth to/from this memory (bytes/s)
system.mem_ctrls1.bw_total::switch_cpus_1.inst          535                       # Total bandwidth to/from this memory (bytes/s)
system.mem_ctrls1.bw_total::switch_cpus_1.data      2874083                       # Total bandwidth to/from this memory (bytes/s)
system.mem_ctrls1.bw_total::total            27539144                       # Total bandwidth to/from this memory (bytes/s)
system.mem_ctrls1.readReqs                     370864                       # Number of read requests accepted
system.mem_ctrls1.writeReqs                    246612                       # Number of write requests accepted
system.mem_ctrls1.readBursts                   370864                       # Number of DRAM read bursts, including those serviced by the write queue
system.mem_ctrls1.writeBursts                  246612                       # Number of DRAM write bursts, including those merged in the write queue
system.mem_ctrls1.bytesReadDRAM              23693760                       # Total number of bytes read from DRAM
system.mem_ctrls1.bytesReadWrQ                  41536                       # Total number of bytes read from write queue
system.mem_ctrls1.bytesWritten               15782208                       # Total number of bytes written to DRAM
system.mem_ctrls1.bytesReadSys               23735296                       # Total read bytes from the system interface side
system.mem_ctrls1.bytesWrittenSys            15783168                       # Total written bytes from the system interface side
system.mem_ctrls1.servicedByWrQ                   649                       # Number of DRAM read bursts serviced by the write queue
system.mem_ctrls1.mergedWrBursts                    0                       # Number of DRAM write bursts merged with an existing one
system.mem_ctrls1.neitherReadNorWriteReqs            0                       # Number of requests that are neither read nor write
system.mem_ctrls1.perBankRdBursts::0            24141                       # Per bank write bursts
system.mem_ctrls1.perBankRdBursts::1            23601                       # Per bank write bursts
system.mem_ctrls1.perBankRdBursts::2            24416                       # Per bank write bursts
system.mem_ctrls1.perBankRdBursts::3            23839                       # Per bank write bursts
system.mem_ctrls1.perBankRdBursts::4            21729                       # Per bank write bursts
system.mem_ctrls1.perBankRdBursts::5            22641                       # Per bank write bursts
system.mem_ctrls1.perBankRdBursts::6            22849                       # Per bank write bursts
system.mem_ctrls1.perBankRdBursts::7            23673                       # Per bank write bursts
system.mem_ctrls1.perBankRdBursts::8            24206                       # Per bank write bursts
system.mem_ctrls1.perBankRdBursts::9            22507                       # Per bank write bursts
system.mem_ctrls1.perBankRdBursts::10           23287                       # Per bank write bursts
system.mem_ctrls1.perBankRdBursts::11           22705                       # Per bank write bursts
system.mem_ctrls1.perBankRdBursts::12           21381                       # Per bank write bursts
system.mem_ctrls1.perBankRdBursts::13           22333                       # Per bank write bursts
system.mem_ctrls1.perBankRdBursts::14           22675                       # Per bank write bursts
system.mem_ctrls1.perBankRdBursts::15           24232                       # Per bank write bursts
system.mem_ctrls1.perBankWrBursts::0            16176                       # Per bank write bursts
system.mem_ctrls1.perBankWrBursts::1            15804                       # Per bank write bursts
system.mem_ctrls1.perBankWrBursts::2            16315                       # Per bank write bursts
system.mem_ctrls1.perBankWrBursts::3            15738                       # Per bank write bursts
system.mem_ctrls1.perBankWrBursts::4            14056                       # Per bank write bursts
system.mem_ctrls1.perBankWrBursts::5            14979                       # Per bank write bursts
system.mem_ctrls1.perBankWrBursts::6            15295                       # Per bank write bursts
system.mem_ctrls1.perBankWrBursts::7            15950                       # Per bank write bursts
system.mem_ctrls1.perBankWrBursts::8            16099                       # Per bank write bursts
system.mem_ctrls1.perBankWrBursts::9            14995                       # Per bank write bursts
system.mem_ctrls1.perBankWrBursts::10           15461                       # Per bank write bursts
system.mem_ctrls1.perBankWrBursts::11           15103                       # Per bank write bursts
system.mem_ctrls1.perBankWrBursts::12           14323                       # Per bank write bursts
system.mem_ctrls1.perBankWrBursts::13           14729                       # Per bank write bursts
system.mem_ctrls1.perBankWrBursts::14           15195                       # Per bank write bursts
system.mem_ctrls1.perBankWrBursts::15           16379                       # Per bank write bursts
system.mem_ctrls1.numRdRetry                        0                       # Number of times read queue was full causing retry
system.mem_ctrls1.numWrRetry                        0                       # Number of times write queue was full causing retry
system.mem_ctrls1.totGap                 1434683567979                       # Total gap between requests
system.mem_ctrls1.readPktSize::0                    0                       # Read request sizes (log2)
system.mem_ctrls1.readPktSize::1                    0                       # Read request sizes (log2)
system.mem_ctrls1.readPktSize::2                    0                       # Read request sizes (log2)
system.mem_ctrls1.readPktSize::3                    0                       # Read request sizes (log2)
system.mem_ctrls1.readPktSize::4                    0                       # Read request sizes (log2)
system.mem_ctrls1.readPktSize::5                    0                       # Read request sizes (log2)
system.mem_ctrls1.readPktSize::6               370864                       # Read request sizes (log2)
system.mem_ctrls1.writePktSize::0                   0                       # Write request sizes (log2)
system.mem_ctrls1.writePktSize::1                   0                       # Write request sizes (log2)
system.mem_ctrls1.writePktSize::2                   0                       # Write request sizes (log2)
system.mem_ctrls1.writePktSize::3                   0                       # Write request sizes (log2)
system.mem_ctrls1.writePktSize::4                   0                       # Write request sizes (log2)
system.mem_ctrls1.writePktSize::5                   0                       # Write request sizes (log2)
system.mem_ctrls1.writePktSize::6              246612                       # Write request sizes (log2)
system.mem_ctrls1.rdQLenPdf::0                 364728                       # What read queue length does an incoming req see
system.mem_ctrls1.rdQLenPdf::1                   5388                       # What read queue length does an incoming req see
system.mem_ctrls1.rdQLenPdf::2                     87                       # What read queue length does an incoming req see
system.mem_ctrls1.rdQLenPdf::3                     12                       # What read queue length does an incoming req see
system.mem_ctrls1.rdQLenPdf::4                      0                       # What read queue length does an incoming req see
system.mem_ctrls1.rdQLenPdf::5                      0                       # What read queue length does an incoming req see
system.mem_ctrls1.rdQLenPdf::6                      0                       # What read queue length does an incoming req see
system.mem_ctrls1.rdQLenPdf::7                      0                       # What read queue length does an incoming req see
system.mem_ctrls1.rdQLenPdf::8                      0                       # What read queue length does an incoming req see
system.mem_ctrls1.rdQLenPdf::9                      0                       # What read queue length does an incoming req see
system.mem_ctrls1.rdQLenPdf::10                     0                       # What read queue length does an incoming req see
system.mem_ctrls1.rdQLenPdf::11                     0                       # What read queue length does an incoming req see
system.mem_ctrls1.rdQLenPdf::12                     0                       # What read queue length does an incoming req see
system.mem_ctrls1.rdQLenPdf::13                     0                       # What read queue length does an incoming req see
system.mem_ctrls1.rdQLenPdf::14                     0                       # What read queue length does an incoming req see
system.mem_ctrls1.rdQLenPdf::15                     0                       # What read queue length does an incoming req see
system.mem_ctrls1.rdQLenPdf::16                     0                       # What read queue length does an incoming req see
system.mem_ctrls1.rdQLenPdf::17                     0                       # What read queue length does an incoming req see
system.mem_ctrls1.rdQLenPdf::18                     0                       # What read queue length does an incoming req see
system.mem_ctrls1.rdQLenPdf::19                     0                       # What read queue length does an incoming req see
system.mem_ctrls1.rdQLenPdf::20                     0                       # What read queue length does an incoming req see
system.mem_ctrls1.rdQLenPdf::21                     0                       # What read queue length does an incoming req see
system.mem_ctrls1.rdQLenPdf::22                     0                       # What read queue length does an incoming req see
system.mem_ctrls1.rdQLenPdf::23                     0                       # What read queue length does an incoming req see
system.mem_ctrls1.rdQLenPdf::24                     0                       # What read queue length does an incoming req see
system.mem_ctrls1.rdQLenPdf::25                     0                       # What read queue length does an incoming req see
system.mem_ctrls1.rdQLenPdf::26                     0                       # What read queue length does an incoming req see
system.mem_ctrls1.rdQLenPdf::27                     0                       # What read queue length does an incoming req see
system.mem_ctrls1.rdQLenPdf::28                     0                       # What read queue length does an incoming req see
system.mem_ctrls1.rdQLenPdf::29                     0                       # What read queue length does an incoming req see
system.mem_ctrls1.rdQLenPdf::30                     0                       # What read queue length does an incoming req see
system.mem_ctrls1.rdQLenPdf::31                     0                       # What read queue length does an incoming req see
system.mem_ctrls1.wrQLenPdf::0                      2                       # What write queue length does an incoming req see
system.mem_ctrls1.wrQLenPdf::1                      2                       # What write queue length does an incoming req see
system.mem_ctrls1.wrQLenPdf::2                      2                       # What write queue length does an incoming req see
system.mem_ctrls1.wrQLenPdf::3                      2                       # What write queue length does an incoming req see
system.mem_ctrls1.wrQLenPdf::4                      2                       # What write queue length does an incoming req see
system.mem_ctrls1.wrQLenPdf::5                      2                       # What write queue length does an incoming req see
system.mem_ctrls1.wrQLenPdf::6                      2                       # What write queue length does an incoming req see
system.mem_ctrls1.wrQLenPdf::7                      2                       # What write queue length does an incoming req see
system.mem_ctrls1.wrQLenPdf::8                      2                       # What write queue length does an incoming req see
system.mem_ctrls1.wrQLenPdf::9                      2                       # What write queue length does an incoming req see
system.mem_ctrls1.wrQLenPdf::10                     2                       # What write queue length does an incoming req see
system.mem_ctrls1.wrQLenPdf::11                     2                       # What write queue length does an incoming req see
system.mem_ctrls1.wrQLenPdf::12                     2                       # What write queue length does an incoming req see
system.mem_ctrls1.wrQLenPdf::13                     2                       # What write queue length does an incoming req see
system.mem_ctrls1.wrQLenPdf::14                     2                       # What write queue length does an incoming req see
system.mem_ctrls1.wrQLenPdf::15                 11487                       # What write queue length does an incoming req see
system.mem_ctrls1.wrQLenPdf::16                 11719                       # What write queue length does an incoming req see
system.mem_ctrls1.wrQLenPdf::17                 13663                       # What write queue length does an incoming req see
system.mem_ctrls1.wrQLenPdf::18                 13959                       # What write queue length does an incoming req see
system.mem_ctrls1.wrQLenPdf::19                 13966                       # What write queue length does an incoming req see
system.mem_ctrls1.wrQLenPdf::20                 13985                       # What write queue length does an incoming req see
system.mem_ctrls1.wrQLenPdf::21                 13990                       # What write queue length does an incoming req see
system.mem_ctrls1.wrQLenPdf::22                 14028                       # What write queue length does an incoming req see
system.mem_ctrls1.wrQLenPdf::23                 14037                       # What write queue length does an incoming req see
system.mem_ctrls1.wrQLenPdf::24                 13999                       # What write queue length does an incoming req see
system.mem_ctrls1.wrQLenPdf::25                 14034                       # What write queue length does an incoming req see
system.mem_ctrls1.wrQLenPdf::26                 13985                       # What write queue length does an incoming req see
system.mem_ctrls1.wrQLenPdf::27                 13970                       # What write queue length does an incoming req see
system.mem_ctrls1.wrQLenPdf::28                 13955                       # What write queue length does an incoming req see
system.mem_ctrls1.wrQLenPdf::29                 13934                       # What write queue length does an incoming req see
system.mem_ctrls1.wrQLenPdf::30                 13977                       # What write queue length does an incoming req see
system.mem_ctrls1.wrQLenPdf::31                 13914                       # What write queue length does an incoming req see
system.mem_ctrls1.wrQLenPdf::32                 13905                       # What write queue length does an incoming req see
system.mem_ctrls1.wrQLenPdf::33                    64                       # What write queue length does an incoming req see
system.mem_ctrls1.wrQLenPdf::34                     9                       # What write queue length does an incoming req see
system.mem_ctrls1.wrQLenPdf::35                     2                       # What write queue length does an incoming req see
system.mem_ctrls1.wrQLenPdf::36                     0                       # What write queue length does an incoming req see
system.mem_ctrls1.wrQLenPdf::37                     0                       # What write queue length does an incoming req see
system.mem_ctrls1.wrQLenPdf::38                     0                       # What write queue length does an incoming req see
system.mem_ctrls1.wrQLenPdf::39                     0                       # What write queue length does an incoming req see
system.mem_ctrls1.wrQLenPdf::40                     0                       # What write queue length does an incoming req see
system.mem_ctrls1.wrQLenPdf::41                     0                       # What write queue length does an incoming req see
system.mem_ctrls1.wrQLenPdf::42                     0                       # What write queue length does an incoming req see
system.mem_ctrls1.wrQLenPdf::43                     0                       # What write queue length does an incoming req see
system.mem_ctrls1.wrQLenPdf::44                     0                       # What write queue length does an incoming req see
system.mem_ctrls1.wrQLenPdf::45                     0                       # What write queue length does an incoming req see
system.mem_ctrls1.wrQLenPdf::46                     0                       # What write queue length does an incoming req see
system.mem_ctrls1.wrQLenPdf::47                     0                       # What write queue length does an incoming req see
system.mem_ctrls1.wrQLenPdf::48                     0                       # What write queue length does an incoming req see
system.mem_ctrls1.wrQLenPdf::49                     0                       # What write queue length does an incoming req see
system.mem_ctrls1.wrQLenPdf::50                     0                       # What write queue length does an incoming req see
system.mem_ctrls1.wrQLenPdf::51                     0                       # What write queue length does an incoming req see
system.mem_ctrls1.wrQLenPdf::52                     0                       # What write queue length does an incoming req see
system.mem_ctrls1.wrQLenPdf::53                     0                       # What write queue length does an incoming req see
system.mem_ctrls1.wrQLenPdf::54                     0                       # What write queue length does an incoming req see
system.mem_ctrls1.wrQLenPdf::55                     0                       # What write queue length does an incoming req see
system.mem_ctrls1.wrQLenPdf::56                     0                       # What write queue length does an incoming req see
system.mem_ctrls1.wrQLenPdf::57                     0                       # What write queue length does an incoming req see
system.mem_ctrls1.wrQLenPdf::58                     0                       # What write queue length does an incoming req see
system.mem_ctrls1.wrQLenPdf::59                     0                       # What write queue length does an incoming req see
system.mem_ctrls1.wrQLenPdf::60                     0                       # What write queue length does an incoming req see
system.mem_ctrls1.wrQLenPdf::61                     0                       # What write queue length does an incoming req see
system.mem_ctrls1.wrQLenPdf::62                     0                       # What write queue length does an incoming req see
system.mem_ctrls1.wrQLenPdf::63                     0                       # What write queue length does an incoming req see
system.mem_ctrls1.bytesPerActivate::samples       394762                       # Bytes accessed per row activation
system.mem_ctrls1.bytesPerActivate::mean    99.999412                       # Bytes accessed per row activation
system.mem_ctrls1.bytesPerActivate::gmean    82.677264                       # Bytes accessed per row activation
system.mem_ctrls1.bytesPerActivate::stdev   101.281254                       # Bytes accessed per row activation
system.mem_ctrls1.bytesPerActivate::0-127       296289     75.06%     75.06% # Bytes accessed per row activation
system.mem_ctrls1.bytesPerActivate::128-255        75124     19.03%     94.09% # Bytes accessed per row activation
system.mem_ctrls1.bytesPerActivate::256-383        13523      3.43%     97.51% # Bytes accessed per row activation
system.mem_ctrls1.bytesPerActivate::384-511         4672      1.18%     98.69% # Bytes accessed per row activation
system.mem_ctrls1.bytesPerActivate::512-639         1446      0.37%     99.06% # Bytes accessed per row activation
system.mem_ctrls1.bytesPerActivate::640-767          984      0.25%     99.31% # Bytes accessed per row activation
system.mem_ctrls1.bytesPerActivate::768-895          640      0.16%     99.47% # Bytes accessed per row activation
system.mem_ctrls1.bytesPerActivate::896-1023          535      0.14%     99.61% # Bytes accessed per row activation
system.mem_ctrls1.bytesPerActivate::1024-1151         1549      0.39%    100.00% # Bytes accessed per row activation
system.mem_ctrls1.bytesPerActivate::total       394762                       # Bytes accessed per row activation
system.mem_ctrls1.rdPerTurnAround::samples        13899                       # Reads before turning the bus around for writes
system.mem_ctrls1.rdPerTurnAround::mean     26.635441                       # Reads before turning the bus around for writes
system.mem_ctrls1.rdPerTurnAround::stdev   245.749531                       # Reads before turning the bus around for writes
system.mem_ctrls1.rdPerTurnAround::0-1023        13898     99.99%     99.99% # Reads before turning the bus around for writes
system.mem_ctrls1.rdPerTurnAround::28672-29695            1      0.01%    100.00% # Reads before turning the bus around for writes
system.mem_ctrls1.rdPerTurnAround::total        13899                       # Reads before turning the bus around for writes
system.mem_ctrls1.wrPerTurnAround::samples        13899                       # Writes before turning the bus around for reads
system.mem_ctrls1.wrPerTurnAround::mean     17.742068                       # Writes before turning the bus around for reads
system.mem_ctrls1.wrPerTurnAround::gmean    17.722204                       # Writes before turning the bus around for reads
system.mem_ctrls1.wrPerTurnAround::stdev     0.823909                       # Writes before turning the bus around for reads
system.mem_ctrls1.wrPerTurnAround::16            2239     16.11%     16.11% # Writes before turning the bus around for reads
system.mem_ctrls1.wrPerTurnAround::17             129      0.93%     17.04% # Writes before turning the bus around for reads
system.mem_ctrls1.wrPerTurnAround::18           10618     76.39%     93.43% # Writes before turning the bus around for reads
system.mem_ctrls1.wrPerTurnAround::19             818      5.89%     99.32% # Writes before turning the bus around for reads
system.mem_ctrls1.wrPerTurnAround::20              83      0.60%     99.91% # Writes before turning the bus around for reads
system.mem_ctrls1.wrPerTurnAround::21              11      0.08%     99.99% # Writes before turning the bus around for reads
system.mem_ctrls1.wrPerTurnAround::23               1      0.01%    100.00% # Writes before turning the bus around for reads
system.mem_ctrls1.wrPerTurnAround::total        13899                       # Writes before turning the bus around for reads
system.mem_ctrls1.totQLat                 19406820545                       # Total ticks spent queuing
system.mem_ctrls1.totMemAccLat            26348351795                       # Total ticks spent from burst creation until serviced by the DRAM
system.mem_ctrls1.totBusLat                1851075000                       # Total ticks spent in databus transfers
system.mem_ctrls1.avgQLat                    52420.41                       # Average queueing delay per DRAM burst
system.mem_ctrls1.avgBusLat                   5000.00                       # Average bus latency per DRAM burst
system.mem_ctrls1.avgMemAccLat               71170.41                       # Average memory access latency per DRAM burst
system.mem_ctrls1.avgRdBW                       16.51                       # Average DRAM read bandwidth in MiByte/s
system.mem_ctrls1.avgWrBW                       11.00                       # Average achieved write bandwidth in MiByte/s
system.mem_ctrls1.avgRdBWSys                    16.54                       # Average system read bandwidth in MiByte/s
system.mem_ctrls1.avgWrBWSys                    11.00                       # Average system write bandwidth in MiByte/s
system.mem_ctrls1.peakBW                     12800.00                       # Theoretical peak bandwidth in MiByte/s
system.mem_ctrls1.busUtil                        0.21                       # Data bus utilization in percentage
system.mem_ctrls1.busUtilRead                    0.13                       # Data bus utilization in percentage for reads
system.mem_ctrls1.busUtilWrite                   0.09                       # Data bus utilization in percentage for writes
system.mem_ctrls1.avgRdQLen                      1.00                       # Average read queue length when enqueuing
system.mem_ctrls1.avgWrQLen                     23.32                       # Average write queue length when enqueuing
system.mem_ctrls1.readRowHits                  170188                       # Number of row buffer hits during reads
system.mem_ctrls1.writeRowHits                  51862                       # Number of row buffer hits during writes
system.mem_ctrls1.readRowHitRate                45.97                       # Row buffer hit rate for reads
system.mem_ctrls1.writeRowHitRate               21.03                       # Row buffer hit rate for writes
system.mem_ctrls1.avgGap                   2323464.50                       # Average gap between requests
system.mem_ctrls1.pageHitRate                   36.00                       # Row buffer hit rate, read and write combined
system.mem_ctrls1_0.actEnergy              1420995660                       # Energy for activate commands per rank (pJ)
system.mem_ctrls1_0.preEnergy               755277105                       # Energy for precharge commands per rank (pJ)
system.mem_ctrls1_0.readEnergy             1334387460                       # Energy for read commands per rank (pJ)
system.mem_ctrls1_0.writeEnergy             648913860                       # Energy for write commands per rank (pJ)
system.mem_ctrls1_0.refreshEnergy        50413387440.000008                       # Energy for refresh commands per rank (pJ)
system.mem_ctrls1_0.actBackEnergy         26756214960                       # Energy for active background per rank (pJ)
system.mem_ctrls1_0.preBackEnergy          2401999200                       # Energy for precharge background per rank (pJ)
system.mem_ctrls1_0.actPowerDownEnergy   132365382330                       # Energy for active power-down per rank (pJ)
system.mem_ctrls1_0.prePowerDownEnergy    68472910560                       # Energy for precharge power-down per rank (pJ)
system.mem_ctrls1_0.selfRefreshEnergy    224363958150                       # Energy for self refresh per rank (pJ)
system.mem_ctrls1_0.totalEnergy          508950238935                       # Total energy per rank (pJ)
system.mem_ctrls1_0.averagePower           354.671023                       # Core power per rank (mW)
system.mem_ctrls1_0.totalIdleTime        1369710345018                       # Total Idle time Per DRAM Rank
system.mem_ctrls1_0.memoryStateTime::IDLE   4194733934                       # Time in different power states
system.mem_ctrls1_0.memoryStateTime::REF  21414350000                       # Time in different power states
system.mem_ctrls1_0.memoryStateTime::SREF 901434041992                       # Time in different power states
system.mem_ctrls1_0.memoryStateTime::PRE_PDN 178314834025                       # Time in different power states
system.mem_ctrls1_0.memoryStateTime::ACT  39359851810                       # Time in different power states
system.mem_ctrls1_0.memoryStateTime::ACT_PDN 290274634231                       # Time in different power states
system.mem_ctrls1_1.actEnergy              1397605020                       # Energy for activate commands per rank (pJ)
system.mem_ctrls1_1.preEnergy               742844685                       # Energy for precharge commands per rank (pJ)
system.mem_ctrls1_1.readEnergy             1308947640                       # Energy for read commands per rank (pJ)
system.mem_ctrls1_1.writeEnergy             638322480                       # Energy for write commands per rank (pJ)
system.mem_ctrls1_1.refreshEnergy        51200741280.000008                       # Energy for refresh commands per rank (pJ)
system.mem_ctrls1_1.actBackEnergy         27102214650                       # Energy for active background per rank (pJ)
system.mem_ctrls1_1.preBackEnergy          2431077600                       # Energy for precharge background per rank (pJ)
system.mem_ctrls1_1.actPowerDownEnergy   134240001750                       # Energy for active power-down per rank (pJ)
system.mem_ctrls1_1.prePowerDownEnergy    69975174720                       # Energy for precharge power-down per rank (pJ)
system.mem_ctrls1_1.selfRefreshEnergy    222323374845                       # Energy for self refresh per rank (pJ)
system.mem_ctrls1_1.totalEnergy          511377101220                       # Total energy per rank (pJ)
system.mem_ctrls1_1.averagePower           356.362222                       # Core power per rank (mW)
system.mem_ctrls1_1.totalIdleTime        1368888305022                       # Total Idle time Per DRAM Rank
system.mem_ctrls1_1.memoryStateTime::IDLE   4241499588                       # Time in different power states
system.mem_ctrls1_1.memoryStateTime::REF  21748310000                       # Time in different power states
system.mem_ctrls1_1.memoryStateTime::SREF 892576394242                       # Time in different power states
system.mem_ctrls1_1.memoryStateTime::PRE_PDN 182226272354                       # Time in different power states
system.mem_ctrls1_1.memoryStateTime::ACT  39814462930                       # Time in different power states
system.mem_ctrls1_1.memoryStateTime::ACT_PDN 294385506878                       # Time in different power states
system.pwrStateResidencyTicks::UNDEFINED 191486302360992                       # Cumulative time (in ticks) in various power states
system.cpu.branchPred.lookups                       4                       # Number of BP lookups
system.cpu.branchPred.condPredicted                 2                       # Number of conditional branches predicted
system.cpu.branchPred.condIncorrect                 2                       # Number of conditional branches incorrect
system.cpu.branchPred.BTBLookups                    2                       # Number of BTB lookups
system.cpu.branchPred.BTBHits                       0                       # Number of BTB hits
system.cpu.branchPred.BTBCorrect                    0                       # Number of correct BTB predictions (this stat may not work properly.
system.cpu.branchPred.BTBHitPct              0.000000                       # BTB Hit Percentage
system.cpu.branchPred.usedRAS                       0                       # Number of times the RAS was used to get a target.
system.cpu.branchPred.RASInCorrect                  0                       # Number of incorrect RAS predictions.
system.cpu.branchPred.indirectLookups               0                       # Number of indirect predictor lookups.
system.cpu.branchPred.indirectHits                  0                       # Number of indirect target hits.
system.cpu.branchPred.indirectMisses                0                       # Number of indirect misses.
system.cpu.branchPredindirectMispredicted            0                       # Number of mispredicted indirect branches.
system.cpu_voltage_domain.voltage                   1                       # Voltage in Volts
system.cpu_clk_domain.clock                       333                       # Clock period in ticks
system.cpu.dtb.fetch_hits                           0                       # ITB hits
system.cpu.dtb.fetch_misses                         0                       # ITB misses
system.cpu.dtb.fetch_acv                            0                       # ITB acv
system.cpu.dtb.fetch_accesses                       0                       # ITB accesses
system.cpu.dtb.read_hits                            6                       # DTB read hits
system.cpu.dtb.read_misses                          0                       # DTB read misses
system.cpu.dtb.read_acv                             0                       # DTB read access violations
system.cpu.dtb.read_accesses                        6                       # DTB read accesses
system.cpu.dtb.write_hits                           1                       # DTB write hits
system.cpu.dtb.write_misses                         0                       # DTB write misses
system.cpu.dtb.write_acv                            0                       # DTB write access violations
system.cpu.dtb.write_accesses                       1                       # DTB write accesses
system.cpu.dtb.data_hits                            7                       # DTB hits
system.cpu.dtb.data_misses                          0                       # DTB misses
system.cpu.dtb.data_acv                             0                       # DTB access violations
system.cpu.dtb.data_accesses                        7                       # DTB accesses
system.cpu.itb.fetch_hits                           7                       # ITB hits
system.cpu.itb.fetch_misses                         0                       # ITB misses
system.cpu.itb.fetch_acv                            0                       # ITB acv
system.cpu.itb.fetch_accesses                       7                       # ITB accesses
system.cpu.itb.read_hits                            0                       # DTB read hits
system.cpu.itb.read_misses                          0                       # DTB read misses
system.cpu.itb.read_acv                             0                       # DTB read access violations
system.cpu.itb.read_accesses                        0                       # DTB read accesses
system.cpu.itb.write_hits                           0                       # DTB write hits
system.cpu.itb.write_misses                         0                       # DTB write misses
system.cpu.itb.write_acv                            0                       # DTB write access violations
system.cpu.itb.write_accesses                       0                       # DTB write accesses
system.cpu.itb.data_hits                            0                       # DTB hits
system.cpu.itb.data_misses                          0                       # DTB misses
system.cpu.itb.data_acv                             0                       # DTB access violations
system.cpu.itb.data_accesses                        0                       # DTB accesses
system.cpu.workload.num_syscalls                    0                       # Number of system calls
system.cpu.pwrStateResidencyTicks::ON    1434992445992                       # Cumulative time (in ticks) in various power states
system.cpu.numCycles                             1458                       # number of cpu cycles simulated
system.cpu.numWorkItemsStarted                      0                       # number of work items this cpu started
system.cpu.numWorkItemsCompleted                    0                       # number of work items this cpu completed
system.cpu.fetch.icacheStallCycles                 50                       # Number of cycles fetch is stalled on an Icache miss
system.cpu.fetch.Insts                             19                       # Number of instructions fetch has processed
system.cpu.fetch.Branches                           4                       # Number of branches that fetch encountered
system.cpu.fetch.Cycles                             4                       # Number of cycles fetch has run and was not squashing or blocked
system.cpu.fetch.SquashCycles                       7                       # Number of cycles fetch has spent squashing
system.cpu.fetch.PendingDrainCycles                 6                       # Number of cycles fetch has spent waiting on pipes to drain
system.cpu.fetch.CacheLines                         7                       # Number of cache lines fetched
system.cpu.fetch.IcacheSquashes                     4                       # Number of outstanding Icache misses that were squashed
system.cpu.fetch.rateDist::samples                 63                       # Number of instructions fetched each cycle (Total)
system.cpu.fetch.rateDist::mean              0.301587                       # Number of instructions fetched each cycle (Total)
system.cpu.fetch.rateDist::stdev             1.432738                       # Number of instructions fetched each cycle (Total)
system.cpu.fetch.rateDist::underflows               0      0.00%      0.00% # Number of instructions fetched each cycle (Total)
system.cpu.fetch.rateDist::0                       59     93.65%     93.65% # Number of instructions fetched each cycle (Total)
system.cpu.fetch.rateDist::1                        1      1.59%     95.24% # Number of instructions fetched each cycle (Total)
system.cpu.fetch.rateDist::2                        1      1.59%     96.83% # Number of instructions fetched each cycle (Total)
system.cpu.fetch.rateDist::3                        0      0.00%     96.83% # Number of instructions fetched each cycle (Total)
system.cpu.fetch.rateDist::4                        0      0.00%     96.83% # Number of instructions fetched each cycle (Total)
system.cpu.fetch.rateDist::5                        0      0.00%     96.83% # Number of instructions fetched each cycle (Total)
system.cpu.fetch.rateDist::6                        0      0.00%     96.83% # Number of instructions fetched each cycle (Total)
[...]
system.switch_cpus_1.iq.int_inst_queue_writes    562870911                       # Number of integer instruction queue writes
system.switch_cpus_1.iq.int_inst_queue_wakeup_accesses    317613621                       # Number of integer instruction queue wakeup accesses
system.switch_cpus_1.iq.fp_inst_queue_reads          222                       # Number of floating instruction queue reads
system.switch_cpus_1.iq.fp_inst_queue_writes          177                       # Number of floating instruction queue writes
system.switch_cpus_1.iq.fp_inst_queue_wakeup_accesses          101                       # Number of floating instruction queue wakeup accesses
system.switch_cpus_1.iq.int_alu_accesses    342758334                       # Number of integer alu accesses
system.switch_cpus_1.iq.fp_alu_accesses           111                       # Number of floating point alu accesses
system.switch_cpus_1.iew.lsq.thread0.forwLoads      3736450                       # Number of loads that had data forwarded from stores
system.switch_cpus_1.iew.lsq.thread0.invAddrLoads            0                       # Number of loads ignored due to an invalid address
system.switch_cpus_1.iew.lsq.thread0.squashedLoads     43304631                       # Number of loads squashed
system.switch_cpus_1.iew.lsq.thread0.ignoredResponses        25052                       # Number of memory responses ignored because the instruction is squashed
system.switch_cpus_1.iew.lsq.thread0.memOrderViolation        13880                       # Number of memory ordering violations
system.switch_cpus_1.iew.lsq.thread0.squashedStores     13474574                       # Number of stores squashed
system.switch_cpus_1.iew.lsq.thread0.invAddrSwpfs            0                       # Number of software prefetches ignored due to an invalid address
system.switch_cpus_1.iew.lsq.thread0.blockedLoads            0                       # Number of blocked loads due to partial load-store forwarding
system.switch_cpus_1.iew.lsq.thread0.rescheduledLoads            0                       # Number of loads that were rescheduled
system.switch_cpus_1.iew.lsq.thread0.cacheBlocked      6472258                       # Number of times an access to memory failed due to the cache being blocked
system.switch_cpus_1.iew.iewIdleCycles              0                       # Number of cycles IEW is idle
system.switch_cpus_1.iew.iewSquashCycles      3294528                       # Number of cycles IEW is squashing
system.switch_cpus_1.iew.iewBlockCycles      62703581                       # Number of cycles IEW is blocking
system.switch_cpus_1.iew.iewUnblockCycles     21916253                       # Number of cycles IEW is unblocking
system.switch_cpus_1.iew.iewDispatchedInsts    382124352                       # Number of instructions dispatched to IQ
system.switch_cpus_1.iew.iewDispSquashedInsts       966849                       # Number of squashed instructions skipped by dispatch
system.switch_cpus_1.iew.iewDispLoadInsts     92737379                       # Number of dispatched load instructions
system.switch_cpus_1.iew.iewDispStoreInsts     27540062                       # Number of dispatched store instructions
system.switch_cpus_1.iew.iewDispNonSpecInsts            0                       # Number of dispatched non-speculative instructions
system.switch_cpus_1.iew.iewIQFullEvents       234904                       # Number of times the IQ has become full, causing a stall
system.switch_cpus_1.iew.iewLSQFullEvents     21525985                       # Number of times the LSQ has become full, causing a stall
system.switch_cpus_1.iew.memOrderViolationEvents        13880                       # Number of memory order violations
system.switch_cpus_1.iew.predictedTakenIncorrect      1689670                       # Number of branches that were predicted taken incorrectly
system.switch_cpus_1.iew.predictedNotTakenIncorrect      1803514                       # Number of branches that were predicted not taken incorrectly
system.switch_cpus_1.iew.branchMispredicts      3493184                       # Number of branch mispredicts detected at execute
system.switch_cpus_1.iew.iewExecutedInsts    331968143                       # Number of executed instructions
system.switch_cpus_1.iew.iewExecLoadInsts     87371939                       # Number of load instructions executed
system.switch_cpus_1.iew.iewExecSquashedInsts      6246094                       # Number of squashed instructions skipped in execute
system.switch_cpus_1.iew.exec_swp                   0                       # number of swp insts executed
system.switch_cpus_1.iew.exec_nop              695250                       # number of nop insts executed
system.switch_cpus_1.iew.exec_refs          108356254                       # number of memory reference insts executed
system.switch_cpus_1.iew.exec_branches       38594190                       # Number of branches executed
system.switch_cpus_1.iew.exec_stores         20984315                       # Number of stores executed
system.switch_cpus_1.iew.exec_rate           1.208456                       # Inst execution rate
system.switch_cpus_1.iew.wb_sent            321180647                       # cumulative count of insts sent to commit
system.switch_cpus_1.iew.wb_count           317613722                       # cumulative count of insts written-back
system.switch_cpus_1.iew.wb_producers       206550585                       # num instructions producing a value
system.switch_cpus_1.iew.wb_consumers       271471801                       # num instructions consuming a value
system.switch_cpus_1.iew.wb_rate             1.156201                       # insts written-back per cycle
system.switch_cpus_1.iew.wb_fanout           0.760855                       # average fanout of values written-back
system.switch_cpus_1.commit.commitSquashedInsts    172417606                       # The number of squashed insts skipped by commit
system.switch_cpus_1.commit.branchMispredicts      2848566                       # The number of times a branch was mispredicted
system.switch_cpus_1.commit.committed_per_cycle::samples    250713953                       # Number of insts commited each cycle
system.switch_cpus_1.commit.committed_per_cycle::mean     0.799871                       # Number of insts commited each cycle
system.switch_cpus_1.commit.committed_per_cycle::stdev     2.022856                       # Number of insts commited each cycle
system.switch_cpus_1.commit.committed_per_cycle::underflows            0      0.00%      0.00% # Number of insts commited each cycle
system.switch_cpus_1.commit.committed_per_cycle::0    196872038     78.52%     78.52% # Number of insts commited each cycle
system.switch_cpus_1.commit.committed_per_cycle::1     17113952      6.83%     85.35% # Number of insts commited each cycle
system.switch_cpus_1.commit.committed_per_cycle::2     11040559      4.40%     89.75% # Number of insts commited each cycle
system.switch_cpus_1.commit.committed_per_cycle::3      4946572      1.97%     91.73% # Number of insts commited each cycle
system.switch_cpus_1.commit.committed_per_cycle::4      2522914      1.01%     92.73% # Number of insts commited each cycle
system.switch_cpus_1.commit.committed_per_cycle::5      1894838      0.76%     93.49% # Number of insts commited each cycle
system.switch_cpus_1.commit.committed_per_cycle::6      1399005      0.56%     94.05% # Number of insts commited each cycle
system.switch_cpus_1.commit.committed_per_cycle::7       848330      0.34%     94.39% # Number of insts commited each cycle
system.switch_cpus_1.commit.committed_per_cycle::8     14075745      5.61%    100.00% # Number of insts commited each cycle
system.switch_cpus_1.commit.committed_per_cycle::overflows            0      0.00%    100.00% # Number of insts commited each cycle
system.switch_cpus_1.commit.committed_per_cycle::min_value            0                       # Number of insts commited each cycle
system.switch_cpus_1.commit.committed_per_cycle::max_value            8                       # Number of insts commited each cycle
system.switch_cpus_1.commit.committed_per_cycle::total    250713953                       # Number of insts commited each cycle
system.switch_cpus_1.commit.committedInsts    200538932                       # Number of instructions committed
system.switch_cpus_1.commit.committedOps    200538932                       # Number of ops (including micro ops) committed
system.switch_cpus_1.commit.swp_count               0                       # Number of s/w prefetches committed
system.switch_cpus_1.commit.refs             63498195                       # Number of memory references committed
system.switch_cpus_1.commit.loads            49432720                       # Number of loads committed
system.switch_cpus_1.commit.membars                 0                       # Number of memory barriers committed
system.switch_cpus_1.commit.branches         24329166                       # Number of branches committed
system.switch_cpus_1.commit.fp_insts               91                       # Number of committed floating point instructions.
system.switch_cpus_1.commit.int_insts       197997126                       # Number of committed integer instructions.
system.switch_cpus_1.commit.function_calls       749984                       # Number of function calls committed.
system.switch_cpus_1.commit.op_class_0::No_OpClass       538941      0.27%      0.27% # Class of committed instruction
system.switch_cpus_1.commit.op_class_0::IntAlu    136501742     68.07%     68.34% # Class of committed instruction
system.switch_cpus_1.commit.op_class_0::IntMult            0      0.00%     68.34% # Class of committed instruction
system.switch_cpus_1.commit.op_class_0::IntDiv            0      0.00%     68.34% # Class of committed instruction
system.switch_cpus_1.commit.op_class_0::FloatAdd           30      0.00%     68.34% # Class of committed instruction
system.switch_cpus_1.commit.op_class_0::FloatCmp            0      0.00%     68.34% # Class of committed instruction
system.switch_cpus_1.commit.op_class_0::FloatCvt           18      0.00%     68.34% # Class of committed instruction
system.switch_cpus_1.commit.op_class_0::FloatMult            0      0.00%     68.34% # Class of committed instruction
system.switch_cpus_1.commit.op_class_0::FloatMultAcc            0      0.00%     68.34% # Class of committed instruction
system.switch_cpus_1.commit.op_class_0::FloatDiv            6      0.00%     68.34% # Class of committed instruction
system.switch_cpus_1.commit.op_class_0::FloatMisc            0      0.00%     68.34% # Class of committed instruction
system.switch_cpus_1.commit.op_class_0::FloatSqrt            0      0.00%     68.34% # Class of committed instruction
system.switch_cpus_1.commit.op_class_0::SimdAdd            0      0.00%     68.34% # Class of committed instruction
system.switch_cpus_1.commit.op_class_0::SimdAddAcc            0      0.00%     68.34% # Class of committed instruction
system.switch_cpus_1.commit.op_class_0::SimdAlu            0      0.00%     68.34% # Class of committed instruction
system.switch_cpus_1.commit.op_class_0::SimdCmp            0      0.00%     68.34% # Class of committed instruction
system.switch_cpus_1.commit.op_class_0::SimdCvt            0      0.00%     68.34% # Class of committed instruction
system.switch_cpus_1.commit.op_class_0::SimdMisc            0      0.00%     68.34% # Class of committed instruction
system.switch_cpus_1.commit.op_class_0::SimdMult            0      0.00%     68.34% # Class of committed instruction
system.switch_cpus_1.commit.op_class_0::SimdMultAcc            0      0.00%     68.34% # Class of committed instruction
system.switch_cpus_1.commit.op_class_0::SimdShift            0      0.00%     68.34% # Class of committed instruction
system.switch_cpus_1.commit.op_class_0::SimdShiftAcc            0      0.00%     68.34% # Class of committed instruction
system.switch_cpus_1.commit.op_class_0::SimdSqrt            0      0.00%     68.34% # Class of committed instruction
system.switch_cpus_1.commit.op_class_0::SimdFloatAdd            0      0.00%     68.34% # Class of committed instruction
system.switch_cpus_1.commit.op_class_0::SimdFloatAlu            0      0.00%     68.34% # Class of committed instruction
system.switch_cpus_1.commit.op_class_0::SimdFloatCmp            0      0.00%     68.34% # Class of committed instruction
system.switch_cpus_1.commit.op_class_0::SimdFloatCvt            0      0.00%     68.34% # Class of committed instruction
system.switch_cpus_1.commit.op_class_0::SimdFloatDiv            0      0.00%     68.34% # Class of committed instruction
system.switch_cpus_1.commit.op_class_0::SimdFloatMisc            0      0.00%     68.34% # Class of committed instruction
system.switch_cpus_1.commit.op_class_0::SimdFloatMult            0      0.00%     68.34% # Class of committed instruction
system.switch_cpus_1.commit.op_class_0::SimdFloatMultAcc            0      0.00%     68.34% # Class of committed instruction
system.switch_cpus_1.commit.op_class_0::SimdFloatSqrt            0      0.00%     68.34% # Class of committed instruction
system.switch_cpus_1.commit.op_class_0::MemRead     49432701     24.65%     92.99% # Class of committed instruction
system.switch_cpus_1.commit.op_class_0::MemWrite     14065457      7.01%    100.00% # Class of committed instruction
system.switch_cpus_1.commit.op_class_0::FloatMemRead           19      0.00%    100.00% # Class of committed instruction
system.switch_cpus_1.commit.op_class_0::FloatMemWrite           18      0.00%    100.00% # Class of committed instruction
system.switch_cpus_1.commit.op_class_0::IprAccess            0      0.00%    100.00% # Class of committed instruction
system.switch_cpus_1.commit.op_class_0::InstPrefetch            0      0.00%    100.00% # Class of committed instruction
system.switch_cpus_1.commit.op_class_0::total    200538932                       # Class of committed instruction
system.switch_cpus_1.commit.bw_lim_events     14075745                       # number cycles where commit BW limit reached
system.switch_cpus_1.rob.rob_reads          603939122                       # The number of ROB reads
system.switch_cpus_1.rob.rob_writes         769897657                       # The number of ROB writes
system.switch_cpus_1.timesIdled                   335                       # Number of times that the entire CPU went into an idle state and unscheduled itself
system.switch_cpus_1.idleCycles                 35701                       # Total number of cycles that the CPU has spent unscheduled due to idling
system.switch_cpus_1.committedInsts         200000003                       # Number of Instructions Simulated
system.switch_cpus_1.committedOps           200000003                       # Number of Ops (including micro ops) Simulated
system.switch_cpus_1.cpi                     1.373522                       # CPI: Cycles Per Instruction
system.switch_cpus_1.cpi_total               1.373522                       # CPI: Total CPI of All Threads
system.switch_cpus_1.ipc                     0.728055                       # IPC: Instructions Per Cycle
system.switch_cpus_1.ipc_total               0.728055                       # IPC: Total IPC of All Threads
system.switch_cpus_1.int_regfile_reads      451747634                       # number of integer regfile reads
system.switch_cpus_1.int_regfile_writes     261559178                       # number of integer regfile writes
system.switch_cpus_1.fp_regfile_reads              63                       # number of floating regfile reads
system.switch_cpus_1.fp_regfile_writes            103                       # number of floating regfile writes
system.switch_cpus_1.misc_regfile_reads            12                       # number of misc regfile reads
system.switch_cpus_1.misc_regfile_writes            6                       # number of misc regfile writes
system.tol3bus.snoop_filter.tot_requests     15148887                       # Total number of requests made to the snoop filter.
system.tol3bus.snoop_filter.hit_single_requests      7572295                       # Number of requests hitting in the snoop filter with a single holder of the requested data.
system.tol3bus.snoop_filter.hit_multi_requests            0                       # Number of requests hitting in the snoop filter with multiple (>1) holders of the requested data.
system.tol3bus.snoop_filter.tot_snoops            541                       # Total number of snoops made to the snoop filter.
system.tol3bus.snoop_filter.hit_single_snoops          541                       # Number of snoops hitting in the snoop filter with a single holder of the requested data.
system.tol3bus.snoop_filter.hit_multi_snoops            0                       # Number of snoops hitting in the snoop filter with multiple (>1) holders of the requested data.
system.tol3bus.pwrStateResidencyTicks::UNDEFINED 191486302360992                       # Cumulative time (in ticks) in various power states
system.tol3bus.trans_dist::ReadResp           5401191                       # Transaction distribution
system.tol3bus.trans_dist::WritebackDirty      4440457                       # Transaction distribution
system.tol3bus.trans_dist::CleanEvict         3807533                       # Transaction distribution
system.tol3bus.trans_dist::UpgradeReq               5                       # Transaction distribution
system.tol3bus.trans_dist::UpgradeResp              5                       # Transaction distribution
system.tol3bus.trans_dist::ReadExReq          2175401                       # Transaction distribution
system.tol3bus.trans_dist::ReadExResp         2175401                       # Transaction distribution
system.tol3bus.trans_dist::ReadSharedReq      5401191                       # Transaction distribution
system.tol3bus.pkt_count_system.cpu.l2.mem_side::system.l3.cpu_side     22725484                       # Packet count per connected master and slave (bytes)
system.tol3bus.pkt_size_system.cpu.l2.mem_side::system.l3.cpu_side    737549376                       # Cumulative packet size per connected master and slave (bytes)
system.tol3bus.snoops                          675700                       # Total snoops (count)
system.tol3bus.snoopTraffic                  31541760                       # Total snoop traffic (bytes)
system.tol3bus.snoop_fanout::samples          8252297                       # Request fanout histogram
system.tol3bus.snoop_fanout::mean            0.000066                       # Request fanout histogram
system.tol3bus.snoop_fanout::stdev           0.008096                       # Request fanout histogram
system.tol3bus.snoop_fanout::underflows             0      0.00%      0.00% # Request fanout histogram
system.tol3bus.snoop_fanout::0                8251756     99.99%     99.99% # Request fanout histogram
system.tol3bus.snoop_fanout::1                    541      0.01%    100.00% # Request fanout histogram
system.tol3bus.snoop_fanout::overflows              0      0.00%    100.00% # Request fanout histogram
system.tol3bus.snoop_fanout::min_value              0                       # Request fanout histogram
system.tol3bus.snoop_fanout::max_value              1                       # Request fanout histogram
system.tol3bus.snoop_fanout::total            8252297                       # Request fanout histogram
system.tol3bus.reqLayer0.occupancy         6359135832                       # Layer occupancy (ticks)
system.tol3bus.reqLayer0.utilization              0.4                       # Layer utilization (%)
system.tol3bus.respLayer0.occupancy        5046011937                       # Layer occupancy (ticks)
system.tol3bus.respLayer0.utilization             0.4                       # Layer utilization (%)

---------- End Simulation Statistics   ----------
