
---------- Begin Simulation Statistics ----------
sim_seconds                                 17.490896                       # Number of seconds simulated
sim_ticks                                17490896107731                       # Number of ticks simulated
final_tick                               179573079270231                       # Number of ticks from beginning of simulation (restored from checkpoints and never reset)
sim_freq                                 1000000000000                       # Frequency of simulated ticks
host_inst_rate                                  37673                       # Simulator instruction rate (inst/s)
host_op_rate                                    37673                       # Simulator op (including micro ops) rate (op/s)
host_tick_rate                              549112961                       # Simulator tick rate (ticks/s)
host_mem_usage                                2689532                       # Number of bytes of host memory used
host_seconds                                 31853.00                       # Real time elapsed on the host
sim_insts                                  1200000012                       # Number of instructions simulated
sim_ops                                    1200000012                       # Number of ops (including micro ops) simulated
system.voltage_domain.voltage                       1                       # Voltage in Volts
system.clk_domain.clock                          1000                       # Clock period in ticks
system.mem_ctrls0.pwrStateResidencyTicks::UNDEFINED 179573079270231                       # Cumulative time (in ticks) in various power states
system.mem_ctrls0.bytes_read::cpu.inst            128                       # Number of bytes read from this memory
system.mem_ctrls0.bytes_read::switch_cpus.inst         1472                       # Number of bytes read from this memory
system.mem_ctrls0.bytes_read::switch_cpus.data   1773696576                       # Number of bytes read from this memory
system.mem_ctrls0.bytes_read::switch_cpus_1.inst          128                       # Number of bytes read from this memory
system.mem_ctrls0.bytes_read::switch_cpus_1.data    352302720                       # Number of bytes read from this memory
system.mem_ctrls0.bytes_read::total        2126001024                       # Number of bytes read from this memory
system.mem_ctrls0.bytes_inst_read::cpu.inst          128                       # Number of instructions bytes read from this memory
system.mem_ctrls0.bytes_inst_read::switch_cpus.inst         1472                       # Number of instructions bytes read from this memory
system.mem_ctrls0.bytes_inst_read::switch_cpus_1.inst          128                       # Number of instructions bytes read from this memory
system.mem_ctrls0.bytes_inst_read::total         1728                       # Number of instructions bytes read from this memory
system.mem_ctrls0.bytes_written::writebacks      3479040                       # Number of bytes written to this memory
system.mem_ctrls0.bytes_written::total        3479040                       # Number of bytes written to this memory
system.mem_ctrls0.num_reads::cpu.inst               2                       # Number of read requests responded to by this memory
system.mem_ctrls0.num_reads::switch_cpus.inst           23                       # Number of read requests responded to by this memory
system.mem_ctrls0.num_reads::switch_cpus.data     27714009                       # Number of read requests responded to by this memory
system.mem_ctrls0.num_reads::switch_cpus_1.inst            2                       # Number of read requests responded to by this memory
system.mem_ctrls0.num_reads::switch_cpus_1.data      5504730                       # Number of read requests responded to by this memory
system.mem_ctrls0.num_reads::total           33218766                       # Number of read requests responded to by this memory
system.mem_ctrls0.num_writes::writebacks        54360                       # Number of write requests responded to by this memory
system.mem_ctrls0.num_writes::total             54360                       # Number of write requests responded to by this memory
system.mem_ctrls0.bw_read::cpu.inst                 7                       # Total read bandwidth from this memory (bytes/s)
system.mem_ctrls0.bw_read::switch_cpus.inst           84                       # Total read bandwidth from this memory (bytes/s)
system.mem_ctrls0.bw_read::switch_cpus.data    101406844                       # Total read bandwidth from this memory (bytes/s)
system.mem_ctrls0.bw_read::switch_cpus_1.inst            7                       # Total read bandwidth from this memory (bytes/s)
system.mem_ctrls0.bw_read::switch_cpus_1.data     20142062                       # Total read bandwidth from this memory (bytes/s)
system.mem_ctrls0.bw_read::total            121549005                       # Total read bandwidth from this memory (bytes/s)
system.mem_ctrls0.bw_inst_read::cpu.inst            7                       # Instruction read bandwidth from this memory (bytes/s)
system.mem_ctrls0.bw_inst_read::switch_cpus.inst           84                       # Instruction read bandwidth from this memory (bytes/s)
system.mem_ctrls0.bw_inst_read::switch_cpus_1.inst            7                       # Instruction read bandwidth from this memory (bytes/s)
system.mem_ctrls0.bw_inst_read::total              99                       # Instruction read bandwidth from this memory (bytes/s)
system.mem_ctrls0.bw_write::writebacks         198906                       # Write bandwidth from this memory (bytes/s)
system.mem_ctrls0.bw_write::total              198906                       # Write bandwidth from this memory (bytes/s)
system.mem_ctrls0.bw_total::writebacks         198906                       # Total bandwidth to/from this memory (bytes/s)
system.mem_ctrls0.bw_total::cpu.inst                7                       # Total bandwidth to/from this memory (bytes/s)
system.mem_ctrls0.bw_total::switch_cpus.inst           84                       # Total bandwidth to/from this memory (bytes/s)
system.mem_ctrls0.bw_total::switch_cpus.data    101406844                       # Total bandwidth to/from this memory (bytes/s)
system.mem_ctrls0.bw_total::switch_cpus_1.inst            7                       # Total bandwidth to/from this memory (bytes/s)
system.mem_ctrls0.bw_total::switch_cpus_1.data     20142062                       # Total bandwidth to/from this memory (bytes/s)
system.mem_ctrls0.bw_total::total           121747911                       # Total bandwidth to/from this memory (bytes/s)
system.mem_ctrls0.readReqs                   33218766                       # Number of read requests accepted
system.mem_ctrls0.writeReqs                     54360                       # Number of write requests accepted
system.mem_ctrls0.readBursts                 33218766                       # Number of DRAM read bursts, including those serviced by the write queue
system.mem_ctrls0.writeBursts                   54360                       # Number of DRAM write bursts, including those merged in the write queue
system.mem_ctrls0.bytesReadDRAM            2125665600                       # Total number of bytes read from DRAM
system.mem_ctrls0.bytesReadWrQ                 335424                       # Total number of bytes read from write queue
system.mem_ctrls0.bytesWritten                3455872                       # Total number of bytes written to DRAM
system.mem_ctrls0.bytesReadSys             2126001024                       # Total read bytes from the system interface side
system.mem_ctrls0.bytesWrittenSys             3479040                       # Total written bytes from the system interface side
system.mem_ctrls0.servicedByWrQ                  5241                       # Number of DRAM read bursts serviced by the write queue
system.mem_ctrls0.mergedWrBursts                  335                       # Number of DRAM write bursts merged with an existing one
system.mem_ctrls0.neitherReadNorWriteReqs            0                       # Number of requests that are neither read nor write
system.mem_ctrls0.perBankRdBursts::0          2074809                       # Per bank write bursts
system.mem_ctrls0.perBankRdBursts::1          2068722                       # Per bank write bursts
system.mem_ctrls0.perBankRdBursts::2          2078415                       # Per bank write bursts
system.mem_ctrls0.perBankRdBursts::3          2073613                       # Per bank write bursts
system.mem_ctrls0.perBankRdBursts::4          2079658                       # Per bank write bursts
system.mem_ctrls0.perBankRdBursts::5          2073458                       # Per bank write bursts
system.mem_ctrls0.perBankRdBursts::6          2080441                       # Per bank write bursts
system.mem_ctrls0.perBankRdBursts::7          2075260                       # Per bank write bursts
system.mem_ctrls0.perBankRdBursts::8          2083032                       # Per bank write bursts
system.mem_ctrls0.perBankRdBursts::9          2070021                       # Per bank write bursts
system.mem_ctrls0.perBankRdBursts::10         2076841                       # Per bank write bursts
system.mem_ctrls0.perBankRdBursts::11         2076641                       # Per bank write bursts
system.mem_ctrls0.perBankRdBursts::12         2077821                       # Per bank write bursts
system.mem_ctrls0.perBankRdBursts::13         2075049                       # Per bank write bursts
system.mem_ctrls0.perBankRdBursts::14         2079353                       # Per bank write bursts
system.mem_ctrls0.perBankRdBursts::15         2070391                       # Per bank write bursts
system.mem_ctrls0.perBankWrBursts::0             3182                       # Per bank write bursts
system.mem_ctrls0.perBankWrBursts::1             3187                       # Per bank write bursts
system.mem_ctrls0.perBankWrBursts::2             3142                       # Per bank write bursts
system.mem_ctrls0.perBankWrBursts::3             3933                       # Per bank write bursts
system.mem_ctrls0.perBankWrBursts::4             4579                       # Per bank write bursts
system.mem_ctrls0.perBankWrBursts::5             3253                       # Per bank write bursts
system.mem_ctrls0.perBankWrBursts::6             3158                       # Per bank write bursts
system.mem_ctrls0.perBankWrBursts::7             3406                       # Per bank write bursts
system.mem_ctrls0.perBankWrBursts::8             3437                       # Per bank write bursts
system.mem_ctrls0.perBankWrBursts::9             3211                       # Per bank write bursts
system.mem_ctrls0.perBankWrBursts::10            3258                       # Per bank write bursts
system.mem_ctrls0.perBankWrBursts::11            3300                       # Per bank write bursts
system.mem_ctrls0.perBankWrBursts::12            3257                       # Per bank write bursts
system.mem_ctrls0.perBankWrBursts::13            3198                       # Per bank write bursts
system.mem_ctrls0.perBankWrBursts::14            3226                       # Per bank write bursts
system.mem_ctrls0.perBankWrBursts::15            3271                       # Per bank write bursts
system.mem_ctrls0.numRdRetry                        0                       # Number of times read queue was full causing retry
system.mem_ctrls0.numWrRetry                        0                       # Number of times write queue was full causing retry
system.mem_ctrls0.totGap                 17490895025571                       # Total gap between requests
system.mem_ctrls0.readPktSize::0                    0                       # Read request sizes (log2)
system.mem_ctrls0.readPktSize::1                    0                       # Read request sizes (log2)
system.mem_ctrls0.readPktSize::2                    0                       # Read request sizes (log2)
system.mem_ctrls0.readPktSize::3                    0                       # Read request sizes (log2)
system.mem_ctrls0.readPktSize::4                    0                       # Read request sizes (log2)
system.mem_ctrls0.readPktSize::5                    0                       # Read request sizes (log2)
system.mem_ctrls0.readPktSize::6             33218766                       # Read request sizes (log2)
system.mem_ctrls0.writePktSize::0                   0                       # Write request sizes (log2)
system.mem_ctrls0.writePktSize::1                   0                       # Write request sizes (log2)
system.mem_ctrls0.writePktSize::2                   0                       # Write request sizes (log2)
system.mem_ctrls0.writePktSize::3                   0                       # Write request sizes (log2)
system.mem_ctrls0.writePktSize::4                   0                       # Write request sizes (log2)
system.mem_ctrls0.writePktSize::5                   0                       # Write request sizes (log2)
system.mem_ctrls0.writePktSize::6               54360                       # Write request sizes (log2)
system.mem_ctrls0.rdQLenPdf::0               33213191                       # What read queue length does an incoming req see
system.mem_ctrls0.rdQLenPdf::1                    315                       # What read queue length does an incoming req see
system.mem_ctrls0.rdQLenPdf::2                     18                       # What read queue length does an incoming req see
system.mem_ctrls0.rdQLenPdf::3                      1                       # What read queue length does an incoming req see
system.mem_ctrls0.rdQLenPdf::4                      0                       # What read queue length does an incoming req see
system.mem_ctrls0.rdQLenPdf::5                      0                       # What read queue length does an incoming req see
system.mem_ctrls0.rdQLenPdf::6                      0                       # What read queue length does an incoming req see
system.mem_ctrls0.rdQLenPdf::7                      0                       # What read queue length does an incoming req see
system.mem_ctrls0.rdQLenPdf::8                      0                       # What read queue length does an incoming req see
system.mem_ctrls0.rdQLenPdf::9                      0                       # What read queue length does an incoming req see
system.mem_ctrls0.rdQLenPdf::10                     0                       # What read queue length does an incoming req see
system.mem_ctrls0.rdQLenPdf::11                     0                       # What read queue length does an incoming req see
system.mem_ctrls0.rdQLenPdf::12                     0                       # What read queue length does an incoming req see
system.mem_ctrls0.rdQLenPdf::13                     0                       # What read queue length does an incoming req see
system.mem_ctrls0.rdQLenPdf::14                     0                       # What read queue length does an incoming req see
system.mem_ctrls0.rdQLenPdf::15                     0                       # What read queue length does an incoming req see
system.mem_ctrls0.rdQLenPdf::16                     0                       # What read queue length does an incoming req see
system.mem_ctrls0.rdQLenPdf::17                     0                       # What read queue length does an incoming req see
system.mem_ctrls0.rdQLenPdf::18                     0                       # What read queue length does an incoming req see
system.mem_ctrls0.rdQLenPdf::19                     0                       # What read queue length does an incoming req see
system.mem_ctrls0.rdQLenPdf::20                     0                       # What read queue length does an incoming req see
system.mem_ctrls0.rdQLenPdf::21                     0                       # What read queue length does an incoming req see
system.mem_ctrls0.rdQLenPdf::22                     0                       # What read queue length does an incoming req see
system.mem_ctrls0.rdQLenPdf::23                     0                       # What read queue length does an incoming req see
system.mem_ctrls0.rdQLenPdf::24                     0                       # What read queue length does an incoming req see
system.mem_ctrls0.rdQLenPdf::25                     0                       # What read queue length does an incoming req see
system.mem_ctrls0.rdQLenPdf::26                     0                       # What read queue length does an incoming req see
system.mem_ctrls0.rdQLenPdf::27                     0                       # What read queue length does an incoming req see
system.mem_ctrls0.rdQLenPdf::28                     0                       # What read queue length does an incoming req see
system.mem_ctrls0.rdQLenPdf::29                     0                       # What read queue length does an incoming req see
system.mem_ctrls0.rdQLenPdf::30                     0                       # What read queue length does an incoming req see
system.mem_ctrls0.rdQLenPdf::31                     0                       # What read queue length does an incoming req see
system.mem_ctrls0.wrQLenPdf::0                      2                       # What write queue length does an incoming req see
system.mem_ctrls0.wrQLenPdf::1                      2                       # What write queue length does an incoming req see
system.mem_ctrls0.wrQLenPdf::2                      2                       # What write queue length does an incoming req see
system.mem_ctrls0.wrQLenPdf::3                      2                       # What write queue length does an incoming req see
system.mem_ctrls0.wrQLenPdf::4                      2                       # What write queue length does an incoming req see
system.mem_ctrls0.wrQLenPdf::5                      2                       # What write queue length does an incoming req see
system.mem_ctrls0.wrQLenPdf::6                      2                       # What write queue length does an incoming req see
system.mem_ctrls0.wrQLenPdf::7                      2                       # What write queue length does an incoming req see
system.mem_ctrls0.wrQLenPdf::8                      2                       # What write queue length does an incoming req see
system.mem_ctrls0.wrQLenPdf::9                      2                       # What write queue length does an incoming req see
system.mem_ctrls0.wrQLenPdf::10                     2                       # What write queue length does an incoming req see
system.mem_ctrls0.wrQLenPdf::11                     2                       # What write queue length does an incoming req see
system.mem_ctrls0.wrQLenPdf::12                     2                       # What write queue length does an incoming req see
system.mem_ctrls0.wrQLenPdf::13                     2                       # What write queue length does an incoming req see
system.mem_ctrls0.wrQLenPdf::14                     2                       # What write queue length does an incoming req see
system.mem_ctrls0.wrQLenPdf::15                  2873                       # What write queue length does an incoming req see
system.mem_ctrls0.wrQLenPdf::16                  2907                       # What write queue length does an incoming req see
system.mem_ctrls0.wrQLenPdf::17                  3015                       # What write queue length does an incoming req see
system.mem_ctrls0.wrQLenPdf::18                  3015                       # What write queue length does an incoming req see
system.mem_ctrls0.wrQLenPdf::19                  3013                       # What write queue length does an incoming req see
system.mem_ctrls0.wrQLenPdf::20                  3013                       # What write queue length does an incoming req see
system.mem_ctrls0.wrQLenPdf::21                  3014                       # What write queue length does an incoming req see
system.mem_ctrls0.wrQLenPdf::22                  3016                       # What write queue length does an incoming req see
system.mem_ctrls0.wrQLenPdf::23                  3018                       # What write queue length does an incoming req see
system.mem_ctrls0.wrQLenPdf::24                  3013                       # What write queue length does an incoming req see
system.mem_ctrls0.wrQLenPdf::25                  3013                       # What write queue length does an incoming req see
system.mem_ctrls0.wrQLenPdf::26                  3013                       # What write queue length does an incoming req see
system.mem_ctrls0.wrQLenPdf::27                  3012                       # What write queue length does an incoming req see
system.mem_ctrls0.wrQLenPdf::28                  3012                       # What write queue length does an incoming req see
system.mem_ctrls0.wrQLenPdf::29                  3012                       # What write queue length does an incoming req see
system.mem_ctrls0.wrQLenPdf::30                  3012                       # What write queue length does an incoming req see
system.mem_ctrls0.wrQLenPdf::31                  3012                       # What write queue length does an incoming req see
system.mem_ctrls0.wrQLenPdf::32                  3012                       # What write queue length does an incoming req see
system.mem_ctrls0.wrQLenPdf::33                     0                       # What write queue length does an incoming req see
system.mem_ctrls0.wrQLenPdf::34                     0                       # What write queue length does an incoming req see
system.mem_ctrls0.wrQLenPdf::35                     0                       # What write queue length does an incoming req see
system.mem_ctrls0.wrQLenPdf::36                     0                       # What write queue length does an incoming req see
system.mem_ctrls0.wrQLenPdf::37                     0                       # What write queue length does an incoming req see
system.mem_ctrls0.wrQLenPdf::38                     0                       # What write queue length does an incoming req see
system.mem_ctrls0.wrQLenPdf::39                     0                       # What write queue length does an incoming req see
system.mem_ctrls0.wrQLenPdf::40                     0                       # What write queue length does an incoming req see
system.mem_ctrls0.wrQLenPdf::41                     0                       # What write queue length does an incoming req see
system.mem_ctrls0.wrQLenPdf::42                     0                       # What write queue length does an incoming req see
system.mem_ctrls0.wrQLenPdf::43                     0                       # What write queue length does an incoming req see
system.mem_ctrls0.wrQLenPdf::44                     0                       # What write queue length does an incoming req see
system.mem_ctrls0.wrQLenPdf::45                     0                       # What write queue length does an incoming req see
system.mem_ctrls0.wrQLenPdf::46                     0                       # What write queue length does an incoming req see
system.mem_ctrls0.wrQLenPdf::47                     0                       # What write queue length does an incoming req see
system.mem_ctrls0.wrQLenPdf::48                     0                       # What write queue length does an incoming req see
system.mem_ctrls0.wrQLenPdf::49                     0                       # What write queue length does an incoming req see
system.mem_ctrls0.wrQLenPdf::50                     0                       # What write queue length does an incoming req see
system.mem_ctrls0.wrQLenPdf::51                     0                       # What write queue length does an incoming req see
system.mem_ctrls0.wrQLenPdf::52                     0                       # What write queue length does an incoming req see
system.mem_ctrls0.wrQLenPdf::53                     0                       # What write queue length does an incoming req see
system.mem_ctrls0.wrQLenPdf::54                     0                       # What write queue length does an incoming req see
system.mem_ctrls0.wrQLenPdf::55                     0                       # What write queue length does an incoming req see
system.mem_ctrls0.wrQLenPdf::56                     0                       # What write queue length does an incoming req see
system.mem_ctrls0.wrQLenPdf::57                     0                       # What write queue length does an incoming req see
system.mem_ctrls0.wrQLenPdf::58                     0                       # What write queue length does an incoming req see
system.mem_ctrls0.wrQLenPdf::59                     0                       # What write queue length does an incoming req see
system.mem_ctrls0.wrQLenPdf::60                     0                       # What write queue length does an incoming req see
system.mem_ctrls0.wrQLenPdf::61                     0                       # What write queue length does an incoming req see
system.mem_ctrls0.wrQLenPdf::62                     0                       # What write queue length does an incoming req see
system.mem_ctrls0.wrQLenPdf::63                     0                       # What write queue length does an incoming req see
system.mem_ctrls0.bytesPerActivate::samples     33221264                       # Bytes accessed per row activation
system.mem_ctrls0.bytesPerActivate::mean    64.089107                       # Bytes accessed per row activation
system.mem_ctrls0.bytesPerActivate::gmean    64.051091                       # Bytes accessed per row activation
system.mem_ctrls0.bytesPerActivate::stdev     3.580450                       # Bytes accessed per row activation
system.mem_ctrls0.bytesPerActivate::0-127     33190530     99.91%     99.91% # Bytes accessed per row activation
system.mem_ctrls0.bytesPerActivate::128-255        27217      0.08%     99.99% # Bytes accessed per row activation
system.mem_ctrls0.bytesPerActivate::256-383         2817      0.01%    100.00% # Bytes accessed per row activation
system.mem_ctrls0.bytesPerActivate::384-511          528      0.00%    100.00% # Bytes accessed per row activation
system.mem_ctrls0.bytesPerActivate::512-639          100      0.00%    100.00% # Bytes accessed per row activation
system.mem_ctrls0.bytesPerActivate::640-767           39      0.00%    100.00% # Bytes accessed per row activation
system.mem_ctrls0.bytesPerActivate::768-895           19      0.00%    100.00% # Bytes accessed per row activation
system.mem_ctrls0.bytesPerActivate::896-1023           11      0.00%    100.00% # Bytes accessed per row activation
system.mem_ctrls0.bytesPerActivate::1024-1151            3      0.00%    100.00% # Bytes accessed per row activation
system.mem_ctrls0.bytesPerActivate::total     33221264                       # Bytes accessed per row activation
system.mem_ctrls0.rdPerTurnAround::samples         3013                       # Reads before turning the bus around for writes
system.mem_ctrls0.rdPerTurnAround::mean  10980.707269                       # Reads before turning the bus around for writes
system.mem_ctrls0.rdPerTurnAround::gmean   309.749723                       # Reads before turning the bus around for writes
system.mem_ctrls0.rdPerTurnAround::stdev 53657.775545                       # Reads before turning the bus around for writes
system.mem_ctrls0.rdPerTurnAround::0-32767         2836     94.13%     94.13% # Reads before turning the bus around for writes
system.mem_ctrls0.rdPerTurnAround::32768-65535           55      1.83%     95.95% # Reads before turning the bus around for writes
system.mem_ctrls0.rdPerTurnAround::65536-98303           35      1.16%     97.11% # Reads before turning the bus around for writes
system.mem_ctrls0.rdPerTurnAround::98304-131071           22      0.73%     97.84% # Reads before turning the bus around for writes
system.mem_ctrls0.rdPerTurnAround::131072-163839           12      0.40%     98.24% # Reads before turning the bus around for writes
system.mem_ctrls0.rdPerTurnAround::163840-196607            6      0.20%     98.44% # Reads before turning the bus around for writes
system.mem_ctrls0.rdPerTurnAround::196608-229375            6      0.20%     98.64% # Reads before turning the bus around for writes
system.mem_ctrls0.rdPerTurnAround::229376-262143            6      0.20%     98.84% # Reads before turning the bus around for writes
system.mem_ctrls0.rdPerTurnAround::262144-294911            6      0.20%     99.04% # Reads before turning the bus around for writes
system.mem_ctrls0.rdPerTurnAround::294912-327679            5      0.17%     99.20% # Reads before turning the bus around for writes
system.mem_ctrls0.rdPerTurnAround::327680-360447            4      0.13%     99.34% # Reads before turning the bus around for writes
system.mem_ctrls0.rdPerTurnAround::360448-393215            1      0.03%     99.37% # Reads before turning the bus around for writes
system.mem_ctrls0.rdPerTurnAround::393216-425983            2      0.07%     99.44% # Reads before turning the bus around for writes
system.mem_ctrls0.rdPerTurnAround::425984-458751            6      0.20%     99.63% # Reads before turning the bus around for writes
system.mem_ctrls0.rdPerTurnAround::458752-491519            1      0.03%     99.67% # Reads before turning the bus around for writes
system.mem_ctrls0.rdPerTurnAround::491520-524287            1      0.03%     99.70% # Reads before turning the bus around for writes
system.mem_ctrls0.rdPerTurnAround::524288-557055            2      0.07%     99.77% # Reads before turning the bus around for writes
system.mem_ctrls0.rdPerTurnAround::557056-589823            3      0.10%     99.87% # Reads before turning the bus around for writes
system.mem_ctrls0.rdPerTurnAround::622592-655359            1      0.03%     99.90% # Reads before turning the bus around for writes
system.mem_ctrls0.rdPerTurnAround::655360-688127            1      0.03%     99.93% # Reads before turning the bus around for writes
system.mem_ctrls0.rdPerTurnAround::786432-819199            2      0.07%    100.00% # Reads before turning the bus around for writes
system.mem_ctrls0.rdPerTurnAround::total         3013                       # Reads before turning the bus around for writes
system.mem_ctrls0.wrPerTurnAround::samples         3013                       # Writes before turning the bus around for reads
system.mem_ctrls0.wrPerTurnAround::mean     17.921673                       # Writes before turning the bus around for reads
system.mem_ctrls0.wrPerTurnAround::gmean    17.917167                       # Writes before turning the bus around for reads
system.mem_ctrls0.wrPerTurnAround::stdev     0.388887                       # Writes before turning the bus around for reads
system.mem_ctrls0.wrPerTurnAround::16             107      3.55%      3.55% # Writes before turning the bus around for reads
system.mem_ctrls0.wrPerTurnAround::17              34      1.13%      4.68% # Writes before turning the bus around for reads
system.mem_ctrls0.wrPerTurnAround::18            2860     94.92%     99.60% # Writes before turning the bus around for reads
system.mem_ctrls0.wrPerTurnAround::19              12      0.40%    100.00% # Writes before turning the bus around for reads
system.mem_ctrls0.wrPerTurnAround::total         3013                       # Writes before turning the bus around for reads
system.mem_ctrls0.totQLat                943176955784                       # Total ticks spent queuing
system.mem_ctrls0.totMemAccLat           1565930549534                       # Total ticks spent from burst creation until serviced by the DRAM
system.mem_ctrls0.totBusLat              166067625000                       # Total ticks spent in databus transfers
system.mem_ctrls0.avgQLat                    28397.38                       # Average queueing delay per DRAM burst
system.mem_ctrls0.avgBusLat                   5000.00                       # Average bus latency per DRAM burst
system.mem_ctrls0.avgMemAccLat               47147.38                       # Average memory access latency per DRAM burst
system.mem_ctrls0.avgRdBW                      121.53                       # Average DRAM read bandwidth in MiByte/s
system.mem_ctrls0.avgWrBW                        0.20                       # Average achieved write bandwidth in MiByte/s
system.mem_ctrls0.avgRdBWSys                   121.55                       # Average system read bandwidth in MiByte/s
system.mem_ctrls0.avgWrBWSys                     0.20                       # Average system write bandwidth in MiByte/s
system.mem_ctrls0.peakBW                     12800.00                       # Theoretical peak bandwidth in MiByte/s
system.mem_ctrls0.busUtil                        0.95                       # Data bus utilization in percentage
system.mem_ctrls0.busUtilRead                    0.95                       # Data bus utilization in percentage for reads
system.mem_ctrls0.busUtilWrite                   0.00                       # Data bus utilization in percentage for writes
system.mem_ctrls0.avgRdQLen                      1.00                       # Average read queue length when enqueuing
system.mem_ctrls0.avgWrQLen                     24.06                       # Average write queue length when enqueuing
system.mem_ctrls0.readRowHits                   38663                       # Number of row buffer hits during reads
system.mem_ctrls0.writeRowHits                   7591                       # Number of row buffer hits during writes
system.mem_ctrls0.readRowHitRate                 0.12                       # Row buffer hit rate for reads
system.mem_ctrls0.writeRowHitRate               14.05                       # Row buffer hit rate for writes
system.mem_ctrls0.avgGap                    525676.34                       # Average gap between requests
system.mem_ctrls0.pageHitRate                    0.14                       # Row buffer hit rate, read and write combined
system.mem_ctrls0_0.actEnergy            118582805040                       # Energy for activate commands per rank (pJ)
system.mem_ctrls0_0.preEnergy             63028240440                       # Energy for precharge commands per rank (pJ)
system.mem_ctrls0_0.readEnergy           118555244640                       # Energy for read commands per rank (pJ)
system.mem_ctrls0_0.writeEnergy             145324800                       # Energy for write commands per rank (pJ)
system.mem_ctrls0_0.refreshEnergy        1380744505920.000244                       # Energy for refresh commands per rank (pJ)
system.mem_ctrls0_0.actBackEnergy        570950639160                       # Energy for active background per rank (pJ)
system.mem_ctrls0_0.preBackEnergy         31272493920                       # Energy for precharge background per rank (pJ)
system.mem_ctrls0_0.actPowerDownEnergy   6749181652050                       # Energy for active power-down per rank (pJ)
system.mem_ctrls0_0.prePowerDownEnergy   520548425760                       # Energy for precharge power-down per rank (pJ)
system.mem_ctrls0_0.selfRefreshEnergy       324870000                       # Energy for self refresh per rank (pJ)
system.mem_ctrls0_0.totalEnergy          9553334696550                       # Total energy per rank (pJ)
system.mem_ctrls0_0.averagePower           546.188980                       # Core power per rank (mW)
system.mem_ctrls0_0.totalIdleTime        16158000554224                       # Total Idle time Per DRAM Rank
system.mem_ctrls0_0.memoryStateTime::IDLE  13397955764                       # Time in different power states
system.mem_ctrls0_0.memoryStateTime::REF 584072426000                       # Time in different power states
system.mem_ctrls0_0.memoryStateTime::SREF    939676333                       # Time in different power states
system.mem_ctrls0_0.memoryStateTime::PRE_PDN 1355641910121                       # Time in different power states
system.mem_ctrls0_0.memoryStateTime::ACT 735424454666                       # Time in different power states
system.mem_ctrls0_0.memoryStateTime::ACT_PDN 14801419684847                       # Time in different power states
system.mem_ctrls0_1.actEnergy            118617055620                       # Energy for activate commands per rank (pJ)
system.mem_ctrls0_1.preEnergy             63046456440                       # Energy for precharge commands per rank (pJ)
system.mem_ctrls0_1.readEnergy           118589323860                       # Energy for read commands per rank (pJ)
system.mem_ctrls0_1.writeEnergy             136544760                       # Energy for write commands per rank (pJ)
system.mem_ctrls0_1.refreshEnergy        1380744505920.000244                       # Energy for refresh commands per rank (pJ)
system.mem_ctrls0_1.actBackEnergy        570823888260                       # Energy for active background per rank (pJ)
system.mem_ctrls0_1.preBackEnergy         31278131520                       # Energy for precharge background per rank (pJ)
system.mem_ctrls0_1.actPowerDownEnergy   6759805614150                       # Energy for active power-down per rank (pJ)
system.mem_ctrls0_1.prePowerDownEnergy   511621623840                       # Energy for precharge power-down per rank (pJ)
system.mem_ctrls0_1.selfRefreshEnergy       391881480                       # Energy for self refresh per rank (pJ)
system.mem_ctrls0_1.totalEnergy          9555055966890                       # Total energy per rank (pJ)
system.mem_ctrls0_1.averagePower           546.287389                       # Core power per rank (mW)
system.mem_ctrls0_1.totalIdleTime        16157670261291                       # Total Idle time Per DRAM Rank
system.mem_ctrls0_1.memoryStateTime::IDLE  13402112307                       # Time in different power states
system.mem_ctrls0_1.memoryStateTime::REF 584072594000                       # Time in different power states
system.mem_ctrls0_1.memoryStateTime::SREF   1150679503                       # Time in different power states
system.mem_ctrls0_1.memoryStateTime::PRE_PDN 1332185605698                       # Time in different power states
system.mem_ctrls0_1.memoryStateTime::ACT 735749882264                       # Time in different power states
system.mem_ctrls0_1.memoryStateTime::ACT_PDN 14824335233959                       # Time in different power states
system.mem_ctrls1.pwrStateResidencyTicks::UNDEFINED 179573079270231                       # Cumulative time (in ticks) in various power states
system.mem_ctrls1.bytes_read::cpu.inst            128                       # Number of bytes read from this memory
system.mem_ctrls1.bytes_read::cpu.data             64                       # Number of bytes read from this memory
system.mem_ctrls1.bytes_read::switch_cpus.inst         1088                       # Number of bytes read from this memory
system.mem_ctrls1.bytes_read::switch_cpus.data   1773994880                       # Number of bytes read from this memory
system.mem_ctrls1.bytes_read::switch_cpus_1.inst          320                       # Number of bytes read from this memory
system.mem_ctrls1.bytes_read::switch_cpus_1.data    352256896                       # Number of bytes read from this memory
system.mem_ctrls1.bytes_read::total        2126253376                       # Number of bytes read from this memory
system.mem_ctrls1.bytes_inst_read::cpu.inst          128                       # Number of instructions bytes read from this memory
system.mem_ctrls1.bytes_inst_read::switch_cpus.inst         1088                       # Number of instructions bytes read from this memory
system.mem_ctrls1.bytes_inst_read::switch_cpus_1.inst          320                       # Number of instructions bytes read from this memory
system.mem_ctrls1.bytes_inst_read::total         1536                       # Number of instructions bytes read from this memory
system.mem_ctrls1.bytes_written::writebacks      3481984                       # Number of bytes written to this memory
system.mem_ctrls1.bytes_written::total        3481984                       # Number of bytes written to this memory
system.mem_ctrls1.num_reads::cpu.inst               2                       # Number of read requests responded to by this memory
system.mem_ctrls1.num_reads::cpu.data               1                       # Number of read requests responded to by this memory
system.mem_ctrls1.num_reads::switch_cpus.inst           17                       # Number of read requests responded to by this memory
system.mem_ctrls1.num_reads::switch_cpus.data     27718670                       # Number of read requests responded to by this memory
system.mem_ctrls1.num_reads::switch_cpus_1.inst            5                       # Number of read requests responded to by this memory
system.mem_ctrls1.num_reads::switch_cpus_1.data      5504014                       # Number of read requests responded to by this memory
system.mem_ctrls1.num_reads::total           33222709                       # Number of read requests responded to by this memory
system.mem_ctrls1.num_writes::writebacks        54406                       # Number of write requests responded to by this memory
system.mem_ctrls1.num_writes::total             54406                       # Number of write requests responded to by this memory
system.mem_ctrls1.bw_read::cpu.inst                 7                       # Total read bandwidth from this memory (bytes/s)
system.mem_ctrls1.bw_read::cpu.data                 4                       # Total read bandwidth from this memory (bytes/s)
system.mem_ctrls1.bw_read::switch_cpus.inst           62                       # Total read bandwidth from this memory (bytes/s)
system.mem_ctrls1.bw_read::switch_cpus.data    101423899                       # Total read bandwidth from this memory (bytes/s)
system.mem_ctrls1.bw_read::switch_cpus_1.inst           18                       # Total read bandwidth from this memory (bytes/s)
system.mem_ctrls1.bw_read::switch_cpus_1.data     20139442                       # Total read bandwidth from this memory (bytes/s)
system.mem_ctrls1.bw_read::total            121563433                       # Total read bandwidth from this memory (bytes/s)
system.mem_ctrls1.bw_inst_read::cpu.inst            7                       # Instruction read bandwidth from this memory (bytes/s)
system.mem_ctrls1.bw_inst_read::switch_cpus.inst           62                       # Instruction read bandwidth from this memory (bytes/s)
system.mem_ctrls1.bw_inst_read::switch_cpus_1.inst           18                       # Instruction read bandwidth from this memory (bytes/s)
system.mem_ctrls1.bw_inst_read::total              88                       # Instruction read bandwidth from this memory (bytes/s)
system.mem_ctrls1.bw_write::writebacks         199074                       # Write bandwidth from this memory (bytes/s)
system.mem_ctrls1.bw_write::total              199074                       # Write bandwidth from this memory (bytes/s)
system.mem_ctrls1.bw_total::writebacks         199074                       # Total bandwidth to/from this memory (bytes/s)
system.mem_ctrls1.bw_total::cpu.inst                7                       # Total bandwidth to/from this memory (bytes/s)
system.mem_ctrls1.bw_total::cpu.data                4                       # Total bandwidth to/from this memory (bytes/s)
system.mem_ctrls1.bw_total::switch_cpus.inst           62                       # Total bandwidth to/from this memory (bytes/s)
system.mem_ctrls1.bw_total::switch_cpus.data    101423899                       # Total bandwidth to/from this memory (bytes/s)
system.mem_ctrls1.bw_total::switch_cpus_1.inst           18                       # Total bandwidth to/from this memory (bytes/s)
system.mem_ctrls1.bw_total::switch_cpus_1.data     20139442                       # Total bandwidth to/from this memory (bytes/s)
system.mem_ctrls1.bw_total::total           121762507                       # Total bandwidth to/from this memory (bytes/s)
system.mem_ctrls1.readReqs                   33222709                       # Number of read requests accepted
system.mem_ctrls1.writeReqs                     54406                       # Number of write requests accepted
system.mem_ctrls1.readBursts                 33222709                       # Number of DRAM read bursts, including those serviced by the write queue
system.mem_ctrls1.writeBursts                   54406                       # Number of DRAM write bursts, including those merged in the write queue
system.mem_ctrls1.bytesReadDRAM            2125919936                       # Total number of bytes read from DRAM
system.mem_ctrls1.bytesReadWrQ                 333440                       # Total number of bytes read from write queue
system.mem_ctrls1.bytesWritten                3463168                       # Total number of bytes written to DRAM
system.mem_ctrls1.bytesReadSys             2126253376                       # Total read bytes from the system interface side
system.mem_ctrls1.bytesWrittenSys             3481984                       # Total written bytes from the system interface side
system.mem_ctrls1.servicedByWrQ                  5210                       # Number of DRAM read bursts serviced by the write queue
system.mem_ctrls1.mergedWrBursts                  276                       # Number of DRAM write bursts merged with an existing one
system.mem_ctrls1.neitherReadNorWriteReqs            0                       # Number of requests that are neither read nor write
system.mem_ctrls1.perBankRdBursts::0          2075607                       # Per bank write bursts
system.mem_ctrls1.perBankRdBursts::1          2067347                       # Per bank write bursts
system.mem_ctrls1.perBankRdBursts::2          2076187                       # Per bank write bursts
system.mem_ctrls1.perBankRdBursts::3          2075460                       # Per bank write bursts
system.mem_ctrls1.perBankRdBursts::4          2081016                       # Per bank write bursts
system.mem_ctrls1.perBankRdBursts::5          2077420                       # Per bank write bursts
system.mem_ctrls1.perBankRdBursts::6          2080060                       # Per bank write bursts
system.mem_ctrls1.perBankRdBursts::7          2074187                       # Per bank write bursts
system.mem_ctrls1.perBankRdBursts::8          2085288                       # Per bank write bursts
system.mem_ctrls1.perBankRdBursts::9          2071940                       # Per bank write bursts
system.mem_ctrls1.perBankRdBursts::10         2075288                       # Per bank write bursts
system.mem_ctrls1.perBankRdBursts::11         2075362                       # Per bank write bursts
system.mem_ctrls1.perBankRdBursts::12         2077961                       # Per bank write bursts
system.mem_ctrls1.perBankRdBursts::13         2074664                       # Per bank write bursts
system.mem_ctrls1.perBankRdBursts::14         2077831                       # Per bank write bursts
system.mem_ctrls1.perBankRdBursts::15         2071881                       # Per bank write bursts
system.mem_ctrls1.perBankWrBursts::0             3156                       # Per bank write bursts
system.mem_ctrls1.perBankWrBursts::1             3159                       # Per bank write bursts
system.mem_ctrls1.perBankWrBursts::2             3147                       # Per bank write bursts
system.mem_ctrls1.perBankWrBursts::3             4098                       # Per bank write bursts
system.mem_ctrls1.perBankWrBursts::4             4308                       # Per bank write bursts
system.mem_ctrls1.perBankWrBursts::5             3268                       # Per bank write bursts
system.mem_ctrls1.perBankWrBursts::6             3222                       # Per bank write bursts
system.mem_ctrls1.perBankWrBursts::7             3342                       # Per bank write bursts
system.mem_ctrls1.perBankWrBursts::8             3439                       # Per bank write bursts
system.mem_ctrls1.perBankWrBursts::9             3266                       # Per bank write bursts
system.mem_ctrls1.perBankWrBursts::10            3304                       # Per bank write bursts
system.mem_ctrls1.perBankWrBursts::11            3343                       # Per bank write bursts
system.mem_ctrls1.perBankWrBursts::12            3286                       # Per bank write bursts
system.mem_ctrls1.perBankWrBursts::13            3291                       # Per bank write bursts
system.mem_ctrls1.perBankWrBursts::14            3226                       # Per bank write bursts
system.mem_ctrls1.perBankWrBursts::15            3257                       # Per bank write bursts
system.mem_ctrls1.numRdRetry                        0                       # Number of times read queue was full causing retry
system.mem_ctrls1.numWrRetry                        0                       # Number of times write queue was full causing retry
system.mem_ctrls1.totGap                 17490895898031                       # Total gap between requests
system.mem_ctrls1.readPktSize::0                    0                       # Read request sizes (log2)
system.mem_ctrls1.readPktSize::1                    0                       # Read request sizes (log2)
system.mem_ctrls1.readPktSize::2                    0                       # Read request sizes (log2)
system.mem_ctrls1.readPktSize::3                    0                       # Read request sizes (log2)
system.mem_ctrls1.readPktSize::4                    0                       # Read request sizes (log2)
system.mem_ctrls1.readPktSize::5                    0                       # Read request sizes (log2)
system.mem_ctrls1.readPktSize::6             33222709                       # Read request sizes (log2)
system.mem_ctrls1.writePktSize::0                   0                       # Write request sizes (log2)
system.mem_ctrls1.writePktSize::1                   0                       # Write request sizes (log2)
system.mem_ctrls1.writePktSize::2                   0                       # Write request sizes (log2)
system.mem_ctrls1.writePktSize::3                   0                       # Write request sizes (log2)
system.mem_ctrls1.writePktSize::4                   0                       # Write request sizes (log2)
system.mem_ctrls1.writePktSize::5                   0                       # Write request sizes (log2)
system.mem_ctrls1.writePktSize::6               54406                       # Write request sizes (log2)
system.mem_ctrls1.rdQLenPdf::0               33217175                       # What read queue length does an incoming req see
system.mem_ctrls1.rdQLenPdf::1                    307                       # What read queue length does an incoming req see
system.mem_ctrls1.rdQLenPdf::2                     17                       # What read queue length does an incoming req see
system.mem_ctrls1.rdQLenPdf::3                      0                       # What read queue length does an incoming req see
system.mem_ctrls1.rdQLenPdf::4                      0                       # What read queue length does an incoming req see
system.mem_ctrls1.rdQLenPdf::5                      0                       # What read queue length does an incoming req see
system.mem_ctrls1.rdQLenPdf::6                      0                       # What read queue length does an incoming req see
system.mem_ctrls1.rdQLenPdf::7                      0                       # What read queue length does an incoming req see
system.mem_ctrls1.rdQLenPdf::8                      0                       # What read queue length does an incoming req see
system.mem_ctrls1.rdQLenPdf::9                      0                       # What read queue length does an incoming req see
system.mem_ctrls1.rdQLenPdf::10                     0                       # What read queue length does an incoming req see
system.mem_ctrls1.rdQLenPdf::11                     0                       # What read queue length does an incoming req see
system.mem_ctrls1.rdQLenPdf::12                     0                       # What read queue length does an incoming req see
system.mem_ctrls1.rdQLenPdf::13                     0                       # What read queue length does an incoming req see
system.mem_ctrls1.rdQLenPdf::14                     0                       # What read queue length does an incoming req see
system.mem_ctrls1.rdQLenPdf::15                     0                       # What read queue length does an incoming req see
system.mem_ctrls1.rdQLenPdf::16                     0                       # What read queue length does an incoming req see
system.mem_ctrls1.rdQLenPdf::17                     0                       # What read queue length does an incoming req see
system.mem_ctrls1.rdQLenPdf::18                     0                       # What read queue length does an incoming req see
system.mem_ctrls1.rdQLenPdf::19                     0                       # What read queue length does an incoming req see
system.mem_ctrls1.rdQLenPdf::20                     0                       # What read queue length does an incoming req see
system.mem_ctrls1.rdQLenPdf::21                     0                       # What read queue length does an incoming req see
system.mem_ctrls1.rdQLenPdf::22                     0                       # What read queue length does an incoming req see
system.mem_ctrls1.rdQLenPdf::23                     0                       # What read queue length does an incoming req see
system.mem_ctrls1.rdQLenPdf::24                     0                       # What read queue length does an incoming req see
system.mem_ctrls1.rdQLenPdf::25                     0                       # What read queue length does an incoming req see
system.mem_ctrls1.rdQLenPdf::26                     0                       # What read queue length does an incoming req see
system.mem_ctrls1.rdQLenPdf::27                     0                       # What read queue length does an incoming req see
system.mem_ctrls1.rdQLenPdf::28                     0                       # What read queue length does an incoming req see
system.mem_ctrls1.rdQLenPdf::29                     0                       # What read queue length does an incoming req see
system.mem_ctrls1.rdQLenPdf::30                     0                       # What read queue length does an incoming req see
system.mem_ctrls1.rdQLenPdf::31                     0                       # What read queue length does an incoming req see
system.mem_ctrls1.wrQLenPdf::0                      2                       # What write queue length does an incoming req see
system.mem_ctrls1.wrQLenPdf::1                      2                       # What write queue length does an incoming req see
system.mem_ctrls1.wrQLenPdf::2                      2                       # What write queue length does an incoming req see
system.mem_ctrls1.wrQLenPdf::3                      2                       # What write queue length does an incoming req see
system.mem_ctrls1.wrQLenPdf::4                      2                       # What write queue length does an incoming req see
system.mem_ctrls1.wrQLenPdf::5                      2                       # What write queue length does an incoming req see
system.mem_ctrls1.wrQLenPdf::6                      2                       # What write queue length does an incoming req see
system.mem_ctrls1.wrQLenPdf::7                      2                       # What write queue length does an incoming req see
system.mem_ctrls1.wrQLenPdf::8                      2                       # What write queue length does an incoming req see
system.mem_ctrls1.wrQLenPdf::9                      2                       # What write queue length does an incoming req see
system.mem_ctrls1.wrQLenPdf::10                     2                       # What write queue length does an incoming req see
system.mem_ctrls1.wrQLenPdf::11                     2                       # What write queue length does an incoming req see
system.mem_ctrls1.wrQLenPdf::12                     2                       # What write queue length does an incoming req see
system.mem_ctrls1.wrQLenPdf::13                     2                       # What write queue length does an incoming req see
system.mem_ctrls1.wrQLenPdf::14                     2                       # What write queue length does an incoming req see
system.mem_ctrls1.wrQLenPdf::15                  2875                       # What write queue length does an incoming req see
system.mem_ctrls1.wrQLenPdf::16                  2922                       # What write queue length does an incoming req see
system.mem_ctrls1.wrQLenPdf::17                  3023                       # What write queue length does an incoming req see
system.mem_ctrls1.wrQLenPdf::18                  3019                       # What write queue length does an incoming req see
system.mem_ctrls1.wrQLenPdf::19                  3019                       # What write queue length does an incoming req see
system.mem_ctrls1.wrQLenPdf::20                  3018                       # What write queue length does an incoming req see
system.mem_ctrls1.wrQLenPdf::21                  3019                       # What write queue length does an incoming req see
system.mem_ctrls1.wrQLenPdf::22                  3019                       # What write queue length does an incoming req see
system.mem_ctrls1.wrQLenPdf::23                  3023                       # What write queue length does an incoming req see
system.mem_ctrls1.wrQLenPdf::24                  3018                       # What write queue length does an incoming req see
system.mem_ctrls1.wrQLenPdf::25                  3018                       # What write queue length does an incoming req see
system.mem_ctrls1.wrQLenPdf::26                  3018                       # What write queue length does an incoming req see
system.mem_ctrls1.wrQLenPdf::27                  3019                       # What write queue length does an incoming req see
system.mem_ctrls1.wrQLenPdf::28                  3018                       # What write queue length does an incoming req see
system.mem_ctrls1.wrQLenPdf::29                  3018                       # What write queue length does an incoming req see
system.mem_ctrls1.wrQLenPdf::30                  3018                       # What write queue length does an incoming req see
system.mem_ctrls1.wrQLenPdf::31                  3018                       # What write queue length does an incoming req see
system.mem_ctrls1.wrQLenPdf::32                  3018                       # What write queue length does an incoming req see
system.mem_ctrls1.wrQLenPdf::33                     0                       # What write queue length does an incoming req see
system.mem_ctrls1.wrQLenPdf::34                     0                       # What write queue length does an incoming req see
system.mem_ctrls1.wrQLenPdf::35                     0                       # What write queue length does an incoming req see
system.mem_ctrls1.wrQLenPdf::36                     0                       # What write queue length does an incoming req see
system.mem_ctrls1.wrQLenPdf::37                     0                       # What write queue length does an incoming req see
system.mem_ctrls1.wrQLenPdf::38                     0                       # What write queue length does an incoming req see
system.mem_ctrls1.wrQLenPdf::39                     0                       # What write queue length does an incoming req see
system.mem_ctrls1.wrQLenPdf::40                     0                       # What write queue length does an incoming req see
system.mem_ctrls1.wrQLenPdf::41                     0                       # What write queue length does an incoming req see
system.mem_ctrls1.wrQLenPdf::42                     0                       # What write queue length does an incoming req see
system.mem_ctrls1.wrQLenPdf::43                     0                       # What write queue length does an incoming req see
system.mem_ctrls1.wrQLenPdf::44                     0                       # What write queue length does an incoming req see
system.mem_ctrls1.wrQLenPdf::45                     0                       # What write queue length does an incoming req see
system.mem_ctrls1.wrQLenPdf::46                     0                       # What write queue length does an incoming req see
system.mem_ctrls1.wrQLenPdf::47                     0                       # What write queue length does an incoming req see
system.mem_ctrls1.wrQLenPdf::48                     0                       # What write queue length does an incoming req see
system.mem_ctrls1.wrQLenPdf::49                     0                       # What write queue length does an incoming req see
system.mem_ctrls1.wrQLenPdf::50                     0                       # What write queue length does an incoming req see
system.mem_ctrls1.wrQLenPdf::51                     0                       # What write queue length does an incoming req see
system.mem_ctrls1.wrQLenPdf::52                     0                       # What write queue length does an incoming req see
system.mem_ctrls1.wrQLenPdf::53                     0                       # What write queue length does an incoming req see
system.mem_ctrls1.wrQLenPdf::54                     0                       # What write queue length does an incoming req see
system.mem_ctrls1.wrQLenPdf::55                     0                       # What write queue length does an incoming req see
system.mem_ctrls1.wrQLenPdf::56                     0                       # What write queue length does an incoming req see
system.mem_ctrls1.wrQLenPdf::57                     0                       # What write queue length does an incoming req see
system.mem_ctrls1.wrQLenPdf::58                     0                       # What write queue length does an incoming req see
system.mem_ctrls1.wrQLenPdf::59                     0                       # What write queue length does an incoming req see
system.mem_ctrls1.wrQLenPdf::60                     0                       # What write queue length does an incoming req see
system.mem_ctrls1.wrQLenPdf::61                     0                       # What write queue length does an incoming req see
system.mem_ctrls1.wrQLenPdf::62                     0                       # What write queue length does an incoming req see
system.mem_ctrls1.wrQLenPdf::63                     0                       # What write queue length does an incoming req see
system.mem_ctrls1.bytesPerActivate::samples     33225531                       # Bytes accessed per row activation
system.mem_ctrls1.bytesPerActivate::mean    64.088751                       # Bytes accessed per row activation
system.mem_ctrls1.bytesPerActivate::gmean    64.050940                       # Bytes accessed per row activation
system.mem_ctrls1.bytesPerActivate::stdev     3.558695                       # Bytes accessed per row activation
system.mem_ctrls1.bytesPerActivate::0-127     33194826     99.91%     99.91% # Bytes accessed per row activation
system.mem_ctrls1.bytesPerActivate::128-255        27193      0.08%     99.99% # Bytes accessed per row activation
system.mem_ctrls1.bytesPerActivate::256-383         2775      0.01%    100.00% # Bytes accessed per row activation
system.mem_ctrls1.bytesPerActivate::384-511          526      0.00%    100.00% # Bytes accessed per row activation
system.mem_ctrls1.bytesPerActivate::512-639          156      0.00%    100.00% # Bytes accessed per row activation
system.mem_ctrls1.bytesPerActivate::640-767           37      0.00%    100.00% # Bytes accessed per row activation
system.mem_ctrls1.bytesPerActivate::768-895           14      0.00%    100.00% # Bytes accessed per row activation
system.mem_ctrls1.bytesPerActivate::896-1023            2      0.00%    100.00% # Bytes accessed per row activation
system.mem_ctrls1.bytesPerActivate::1024-1151            2      0.00%    100.00% # Bytes accessed per row activation
system.mem_ctrls1.bytesPerActivate::total     33225531                       # Bytes accessed per row activation
system.mem_ctrls1.rdPerTurnAround::samples         3019                       # Reads before turning the bus around for writes
system.mem_ctrls1.rdPerTurnAround::mean  10989.954289                       # Reads before turning the bus around for writes
system.mem_ctrls1.rdPerTurnAround::gmean   309.672676                       # Reads before turning the bus around for writes
system.mem_ctrls1.rdPerTurnAround::stdev 55087.590196                       # Reads before turning the bus around for writes
system.mem_ctrls1.rdPerTurnAround::0-32767         2833     93.84%     93.84% # Reads before turning the bus around for writes
system.mem_ctrls1.rdPerTurnAround::32768-65535           69      2.29%     96.12% # Reads before turning the bus around for writes
system.mem_ctrls1.rdPerTurnAround::65536-98303           37      1.23%     97.35% # Reads before turning the bus around for writes
system.mem_ctrls1.rdPerTurnAround::98304-131071           16      0.53%     97.88% # Reads before turning the bus around for writes
system.mem_ctrls1.rdPerTurnAround::131072-163839            9      0.30%     98.18% # Reads before turning the bus around for writes
system.mem_ctrls1.rdPerTurnAround::163840-196607            9      0.30%     98.48% # Reads before turning the bus around for writes
system.mem_ctrls1.rdPerTurnAround::196608-229375            6      0.20%     98.68% # Reads before turning the bus around for writes
system.mem_ctrls1.rdPerTurnAround::229376-262143            9      0.30%     98.97% # Reads before turning the bus around for writes
system.mem_ctrls1.rdPerTurnAround::262144-294911            5      0.17%     99.14% # Reads before turning the bus around for writes
system.mem_ctrls1.rdPerTurnAround::294912-327679            4      0.13%     99.27% # Reads before turning the bus around for writes
system.mem_ctrls1.rdPerTurnAround::327680-360447            3      0.10%     99.37% # Reads before turning the bus around for writes
system.mem_ctrls1.rdPerTurnAround::360448-393215            2      0.07%     99.44% # Reads before turning the bus around for writes
system.mem_ctrls1.rdPerTurnAround::393216-425983            1      0.03%     99.47% # Reads before turning the bus around for writes
system.mem_ctrls1.rdPerTurnAround::425984-458751            3      0.10%     99.57% # Reads before turning the bus around for writes
system.mem_ctrls1.rdPerTurnAround::458752-491519            2      0.07%     99.64% # Reads before turning the bus around for writes
system.mem_ctrls1.rdPerTurnAround::524288-557055            2      0.07%     99.70% # Reads before turning the bus around for writes
system.mem_ctrls1.rdPerTurnAround::557056-589823            3      0.10%     99.80% # Reads before turning the bus around for writes
system.mem_ctrls1.rdPerTurnAround::589824-622591            2      0.07%     99.87% # Reads before turning the bus around for writes
system.mem_ctrls1.rdPerTurnAround::655360-688127            1      0.03%     99.90% # Reads before turning the bus around for writes
system.mem_ctrls1.rdPerTurnAround::753664-786431            1      0.03%     99.93% # Reads before turning the bus around for writes
system.mem_ctrls1.rdPerTurnAround::786432-819199            1      0.03%     99.97% # Reads before turning the bus around for writes
system.mem_ctrls1.rdPerTurnAround::950272-983039            1      0.03%    100.00% # Reads before turning the bus around for writes
system.mem_ctrls1.rdPerTurnAround::total         3019                       # Reads before turning the bus around for writes
system.mem_ctrls1.wrPerTurnAround::samples         3019                       # Writes before turning the bus around for reads
system.mem_ctrls1.wrPerTurnAround::mean     17.923816                       # Writes before turning the bus around for reads
system.mem_ctrls1.wrPerTurnAround::gmean    17.919496                       # Writes before turning the bus around for reads
system.mem_ctrls1.wrPerTurnAround::stdev     0.381166                       # Writes before turning the bus around for reads
system.mem_ctrls1.wrPerTurnAround::16              99      3.28%      3.28% # Writes before turning the bus around for reads
system.mem_ctrls1.wrPerTurnAround::17              45      1.49%      4.77% # Writes before turning the bus around for reads
system.mem_ctrls1.wrPerTurnAround::18            2863     94.83%     99.60% # Writes before turning the bus around for reads
system.mem_ctrls1.wrPerTurnAround::19              11      0.36%     99.97% # Writes before turning the bus around for reads
system.mem_ctrls1.wrPerTurnAround::20               1      0.03%    100.00% # Writes before turning the bus around for reads
system.mem_ctrls1.wrPerTurnAround::total         3019                       # Writes before turning the bus around for reads
system.mem_ctrls1.totQLat                953948324060                       # Total ticks spent queuing
system.mem_ctrls1.totMemAccLat           1576776430310                       # Total ticks spent from burst creation until serviced by the DRAM
system.mem_ctrls1.totBusLat              166087495000                       # Total ticks spent in databus transfers
system.mem_ctrls1.avgQLat                    28718.25                       # Average queueing delay per DRAM burst
system.mem_ctrls1.avgBusLat                   5000.00                       # Average bus latency per DRAM burst
system.mem_ctrls1.avgMemAccLat               47468.25                       # Average memory access latency per DRAM burst
system.mem_ctrls1.avgRdBW                      121.54                       # Average DRAM read bandwidth in MiByte/s
system.mem_ctrls1.avgWrBW                        0.20                       # Average achieved write bandwidth in MiByte/s
system.mem_ctrls1.avgRdBWSys                   121.56                       # Average system read bandwidth in MiByte/s
system.mem_ctrls1.avgWrBWSys                     0.20                       # Average system write bandwidth in MiByte/s
system.mem_ctrls1.peakBW                     12800.00                       # Theoretical peak bandwidth in MiByte/s
system.mem_ctrls1.busUtil                        0.95                       # Data bus utilization in percentage
system.mem_ctrls1.busUtilRead                    0.95                       # Data bus utilization in percentage for reads
system.mem_ctrls1.busUtilWrite                   0.00                       # Data bus utilization in percentage for writes
system.mem_ctrls1.avgRdQLen                      1.00                       # Average read queue length when enqueuing
system.mem_ctrls1.avgWrQLen                     24.00                       # Average write queue length when enqueuing
system.mem_ctrls1.readRowHits                   38509                       # Number of row buffer hits during reads
system.mem_ctrls1.writeRowHits                   7566                       # Number of row buffer hits during writes
system.mem_ctrls1.readRowHitRate                 0.12                       # Row buffer hit rate for reads
system.mem_ctrls1.writeRowHitRate               13.98                       # Row buffer hit rate for writes
system.mem_ctrls1.avgGap                    525613.35                       # Average gap between requests
system.mem_ctrls1.pageHitRate                    0.14                       # Row buffer hit rate, read and write combined
system.mem_ctrls1_0.actEnergy            118606881120                       # Energy for activate commands per rank (pJ)
system.mem_ctrls1_0.preEnergy             63041048565                       # Energy for precharge commands per rank (pJ)
system.mem_ctrls1_0.readEnergy           118576007760                       # Energy for read commands per rank (pJ)
system.mem_ctrls1_0.writeEnergy             144594000                       # Energy for write commands per rank (pJ)
system.mem_ctrls1_0.refreshEnergy        1380739588800.000244                       # Energy for refresh commands per rank (pJ)
system.mem_ctrls1_0.actBackEnergy        571019406240                       # Energy for active background per rank (pJ)
system.mem_ctrls1_0.preBackEnergy         31200876000                       # Energy for precharge background per rank (pJ)
system.mem_ctrls1_0.actPowerDownEnergy   6735321016200                       # Energy for active power-down per rank (pJ)
system.mem_ctrls1_0.prePowerDownEnergy   532159948800                       # Energy for precharge power-down per rank (pJ)
system.mem_ctrls1_0.selfRefreshEnergy       381277725                       # Energy for self refresh per rank (pJ)
system.mem_ctrls1_0.totalEnergy          9551191296360                       # Total energy per rank (pJ)
system.mem_ctrls1_0.averagePower           546.066436                       # Core power per rank (mW)
system.mem_ctrls1_0.totalIdleTime        16157799893467                       # Total Idle time Per DRAM Rank
system.mem_ctrls1_0.memoryStateTime::IDLE  13388623455                       # Time in different power states
system.mem_ctrls1_0.memoryStateTime::REF 584070454000                       # Time in different power states
system.mem_ctrls1_0.memoryStateTime::SREF   1132818862                       # Time in different power states
system.mem_ctrls1_0.memoryStateTime::PRE_PDN 1385629392594                       # Time in different power states
system.mem_ctrls1_0.memoryStateTime::ACT 735635248571                       # Time in different power states
system.mem_ctrls1_0.memoryStateTime::ACT_PDN 14771039570249                       # Time in different power states
system.mem_ctrls1_1.actEnergy            118623445920                       # Energy for activate commands per rank (pJ)
system.mem_ctrls1_1.preEnergy             63049841580                       # Energy for precharge commands per rank (pJ)
system.mem_ctrls1_1.readEnergy           118596935100                       # Energy for read commands per rank (pJ)
system.mem_ctrls1_1.writeEnergy             137870640                       # Energy for write commands per rank (pJ)
system.mem_ctrls1_1.refreshEnergy        1380738974160.000244                       # Energy for refresh commands per rank (pJ)
system.mem_ctrls1_1.actBackEnergy        570519427320                       # Energy for active background per rank (pJ)
system.mem_ctrls1_1.preBackEnergy         31333964640                       # Energy for precharge background per rank (pJ)
system.mem_ctrls1_1.actPowerDownEnergy   6765523273320                       # Energy for active power-down per rank (pJ)
system.mem_ctrls1_1.prePowerDownEnergy   507027636480                       # Energy for precharge power-down per rank (pJ)
system.mem_ctrls1_1.selfRefreshEnergy       369788700                       # Energy for self refresh per rank (pJ)
system.mem_ctrls1_1.totalEnergy          9555922158480                       # Total energy per rank (pJ)
system.mem_ctrls1_1.averagePower           546.336911                       # Core power per rank (mW)
system.mem_ctrls1_1.totalIdleTime        16157422444087                       # Total Idle time Per DRAM Rank
system.mem_ctrls1_1.memoryStateTime::IDLE  13334382127                       # Time in different power states
system.mem_ctrls1_1.memoryStateTime::REF 584070200000                       # Time in different power states
system.mem_ctrls1_1.memoryStateTime::SREF   1097616872                       # Time in different power states
system.mem_ctrls1_1.memoryStateTime::PRE_PDN 1320205500724                       # Time in different power states
system.mem_ctrls1_1.memoryStateTime::ACT 736068925545                       # Time in different power states
system.mem_ctrls1_1.memoryStateTime::ACT_PDN 14836119482463                       # Time in different power states
system.pwrStateResidencyTicks::UNDEFINED 179573079270231                       # Cumulative time (in ticks) in various power states
system.cpu.branchPred.lookups                      14                       # Number of BP lookups
system.cpu.branchPred.condPredicted                14                       # Number of conditional branches predicted
system.cpu.branchPred.condIncorrect                 4                       # Number of conditional branches incorrect
system.cpu.branchPred.BTBLookups                    0                       # Number of BTB lookups
system.cpu.branchPred.BTBHits                       0                       # Number of BTB hits
system.cpu.branchPred.BTBCorrect                    0                       # Number of correct BTB predictions (this stat may not work properly.
system.cpu.branchPred.BTBHitPct                   nan                       # BTB Hit Percentage
system.cpu.branchPred.usedRAS                       0                       # Number of times the RAS was used to get a target.
system.cpu.branchPred.RASInCorrect                  0                       # Number of incorrect RAS predictions.
system.cpu.branchPred.indirectLookups               0                       # Number of indirect predictor lookups.
system.cpu.branchPred.indirectHits                  0                       # Number of indirect target hits.
system.cpu.branchPred.indirectMisses                0                       # Number of indirect misses.
system.cpu.branchPredindirectMispredicted            0                       # Number of mispredicted indirect branches.
system.cpu_voltage_domain.voltage                   1                       # Voltage in Volts
system.cpu_clk_domain.clock                       333                       # Clock period in ticks
system.cpu.dtb.fetch_hits                           0                       # ITB hits
system.cpu.dtb.fetch_misses                         0                       # ITB misses
system.cpu.dtb.fetch_acv                            0                       # ITB acv
system.cpu.dtb.fetch_accesses                       0                       # ITB accesses
system.cpu.dtb.read_hits                            1                       # DTB read hits
system.cpu.dtb.read_misses                         11                       # DTB read misses
system.cpu.dtb.read_acv                             0                       # DTB read access violations
system.cpu.dtb.read_accesses                       12                       # DTB read accesses
system.cpu.dtb.write_hits                           0                       # DTB write hits
system.cpu.dtb.write_misses                         0                       # DTB write misses
system.cpu.dtb.write_acv                            0                       # DTB write access violations
system.cpu.dtb.write_accesses                       0                       # DTB write accesses
system.cpu.dtb.data_hits                            1                       # DTB hits
system.cpu.dtb.data_misses                         11                       # DTB misses
system.cpu.dtb.data_acv                             0                       # DTB access violations
system.cpu.dtb.data_accesses                       12                       # DTB accesses
system.cpu.itb.fetch_hits                          13                       # ITB hits
system.cpu.itb.fetch_misses                         0                       # ITB misses
system.cpu.itb.fetch_acv                            0                       # ITB acv
system.cpu.itb.fetch_accesses                      13                       # ITB accesses
[...]
system.switch_cpus_1.iq.FU_type_0::total   1853166881                       # Type of FU issued
system.switch_cpus_1.iq.rate                 0.202083                       # Inst issue rate
system.switch_cpus_1.iq.fu_busy_cnt              4311                       # FU busy when requested
system.switch_cpus_1.iq.fu_busy_rate         0.000002                       # FU busy rate (busy events/executed inst)
system.switch_cpus_1.iq.int_inst_queue_reads  12876658447                       # Number of integer instruction queue reads
system.switch_cpus_1.iq.int_inst_queue_writes   6295549605                       # Number of integer instruction queue writes
system.switch_cpus_1.iq.int_inst_queue_wakeup_accesses   1164801571                       # Number of integer instruction queue wakeup accesses
system.switch_cpus_1.iq.fp_inst_queue_reads            0                       # Number of floating instruction queue reads
system.switch_cpus_1.iq.fp_inst_queue_writes            0                       # Number of floating instruction queue writes
system.switch_cpus_1.iq.fp_inst_queue_wakeup_accesses            0                       # Number of floating instruction queue wakeup accesses
system.switch_cpus_1.iq.int_alu_accesses   1853171192                       # Number of integer alu accesses
system.switch_cpus_1.iq.fp_alu_accesses             0                       # Number of floating point alu accesses
system.switch_cpus_1.iew.lsq.thread0.forwLoads          923                       # Number of loads that had data forwarded from stores
system.switch_cpus_1.iew.lsq.thread0.invAddrLoads            0                       # Number of loads ignored due to an invalid address
system.switch_cpus_1.iew.lsq.thread0.squashedLoads   1004043137                       # Number of loads squashed
system.switch_cpus_1.iew.lsq.thread0.ignoredResponses           17                       # Number of memory responses ignored because the instruction is squashed
system.switch_cpus_1.iew.lsq.thread0.memOrderViolation           40                       # Number of memory ordering violations
system.switch_cpus_1.iew.lsq.thread0.squashedStores       136280                       # Number of stores squashed
system.switch_cpus_1.iew.lsq.thread0.invAddrSwpfs            0                       # Number of software prefetches ignored due to an invalid address
system.switch_cpus_1.iew.lsq.thread0.blockedLoads            0                       # Number of blocked loads due to partial load-store forwarding
system.switch_cpus_1.iew.lsq.thread0.rescheduledLoads            0                       # Number of loads that were rescheduled
system.switch_cpus_1.iew.lsq.thread0.cacheBlocked         7600                       # Number of times an access to memory failed due to the cache being blocked
system.switch_cpus_1.iew.iewIdleCycles              0                       # Number of cycles IEW is idle
system.switch_cpus_1.iew.iewSquashCycles     33186852                       # Number of cycles IEW is squashing
system.switch_cpus_1.iew.iewBlockCycles    8034182006                       # Number of cycles IEW is blocking
system.switch_cpus_1.iew.iewUnblockCycles     40785358                       # Number of cycles IEW is unblocking
system.switch_cpus_1.iew.iewDispatchedInsts   3247793441                       # Number of instructions dispatched to IQ
system.switch_cpus_1.iew.iewDispSquashedInsts         4527                       # Number of squashed instructions skipped by dispatch
system.switch_cpus_1.iew.iewDispLoadInsts   1068297318                       # Number of dispatched load instructions
system.switch_cpus_1.iew.iewDispStoreInsts       148607                       # Number of dispatched store instructions
system.switch_cpus_1.iew.iewDispNonSpecInsts            0                       # Number of dispatched non-speculative instructions
system.switch_cpus_1.iew.iewIQFullEvents     19171496                       # Number of times the IQ has become full, causing a stall
system.switch_cpus_1.iew.iewLSQFullEvents      3741146                       # Number of times the LSQ has become full, causing a stall
system.switch_cpus_1.iew.memOrderViolationEvents           40                       # Number of memory order violations
system.switch_cpus_1.iew.predictedTakenIncorrect      1685537                       # Number of branches that were predicted taken incorrectly
system.switch_cpus_1.iew.predictedNotTakenIncorrect      2826070                       # Number of branches that were predicted not taken incorrectly
system.switch_cpus_1.iew.branchMispredicts      4511607                       # Number of branch mispredicts detected at execute
system.switch_cpus_1.iew.iewExecutedInsts   1848986961                       # Number of executed instructions
system.switch_cpus_1.iew.iewExecLoadInsts    748518012                       # Number of load instructions executed
system.switch_cpus_1.iew.iewExecSquashedInsts      4179918                       # Number of squashed instructions skipped in execute
system.switch_cpus_1.iew.exec_swp                   0                       # number of swp insts executed
system.switch_cpus_1.iew.exec_nop               18609                       # number of nop insts executed
system.switch_cpus_1.iew.exec_refs          748540446                       # number of memory reference insts executed
system.switch_cpus_1.iew.exec_branches      219707286                       # Number of branches executed
system.switch_cpus_1.iew.exec_stores            22434                       # Number of stores executed
system.switch_cpus_1.iew.exec_rate           0.201627                       # Inst execution rate
system.switch_cpus_1.iew.wb_sent           1848072288                       # cumulative count of insts sent to commit
system.switch_cpus_1.iew.wb_count          1164801571                       # cumulative count of insts written-back
system.switch_cpus_1.iew.wb_producers       670546977                       # num instructions producing a value
system.switch_cpus_1.iew.wb_consumers       923451824                       # num instructions consuming a value
system.switch_cpus_1.iew.wb_rate             0.127019                       # insts written-back per cycle
system.switch_cpus_1.iew.wb_fanout           0.726131                       # average fanout of values written-back
system.switch_cpus_1.commit.commitSquashedInsts   2816157553                       # The number of squashed insts skipped by commit
system.switch_cpus_1.commit.branchMispredicts      4333971                       # The number of times a branch was mispredicted
system.switch_cpus_1.commit.committed_per_cycle::samples   8805706235                       # Number of insts commited each cycle
system.switch_cpus_1.commit.committed_per_cycle::mean     0.022713                       # Number of insts commited each cycle
system.switch_cpus_1.commit.committed_per_cycle::stdev     0.282541                       # Number of insts commited each cycle
system.switch_cpus_1.commit.committed_per_cycle::underflows            0      0.00%      0.00% # Number of insts commited each cycle
system.switch_cpus_1.commit.committed_per_cycle::0   8703379384     98.84%     98.84% # Number of insts commited each cycle
system.switch_cpus_1.commit.committed_per_cycle::1     55551509      0.63%     99.47% # Number of insts commited each cycle
system.switch_cpus_1.commit.committed_per_cycle::2     32104087      0.36%     99.83% # Number of insts commited each cycle
system.switch_cpus_1.commit.committed_per_cycle::3      6061549      0.07%     99.90% # Number of insts commited each cycle
system.switch_cpus_1.commit.committed_per_cycle::4      1675390      0.02%     99.92% # Number of insts commited each cycle
system.switch_cpus_1.commit.committed_per_cycle::5        24179      0.00%     99.92% # Number of insts commited each cycle
system.switch_cpus_1.commit.committed_per_cycle::6         3189      0.00%     99.92% # Number of insts commited each cycle
system.switch_cpus_1.commit.committed_per_cycle::7        39774      0.00%     99.92% # Number of insts commited each cycle
system.switch_cpus_1.commit.committed_per_cycle::8      6867174      0.08%    100.00% # Number of insts commited each cycle
system.switch_cpus_1.commit.committed_per_cycle::overflows            0      0.00%    100.00% # Number of insts commited each cycle
system.switch_cpus_1.commit.committed_per_cycle::min_value            0                       # Number of insts commited each cycle
system.switch_cpus_1.commit.committed_per_cycle::max_value            8                       # Number of insts commited each cycle
system.switch_cpus_1.commit.committed_per_cycle::total   8805706235                       # Number of insts commited each cycle
system.switch_cpus_1.commit.committedInsts    200001729                       # Number of instructions committed
system.switch_cpus_1.commit.committedOps    200001729                       # Number of ops (including micro ops) committed
system.switch_cpus_1.commit.swp_count               0                       # Number of s/w prefetches committed
system.switch_cpus_1.commit.refs             64266478                       # Number of memory references committed
system.switch_cpus_1.commit.loads            64254151                       # Number of loads committed
system.switch_cpus_1.commit.membars                 0                       # Number of memory barriers committed
system.switch_cpus_1.commit.branches         49624817                       # Number of branches committed
system.switch_cpus_1.commit.fp_insts                0                       # Number of committed floating point instructions.
system.switch_cpus_1.commit.int_insts       199961763                       # Number of committed integer instructions.
system.switch_cpus_1.commit.function_calls          438                       # Number of function calls committed.
system.switch_cpus_1.commit.op_class_0::No_OpClass         1722      0.00%      0.00% # Class of committed instruction
system.switch_cpus_1.commit.op_class_0::IntAlu    135733506     67.87%     67.87% # Class of committed instruction
system.switch_cpus_1.commit.op_class_0::IntMult           23      0.00%     67.87% # Class of committed instruction
system.switch_cpus_1.commit.op_class_0::IntDiv            0      0.00%     67.87% # Class of committed instruction
system.switch_cpus_1.commit.op_class_0::FloatAdd            0      0.00%     67.87% # Class of committed instruction
system.switch_cpus_1.commit.op_class_0::FloatCmp            0      0.00%     67.87% # Class of committed instruction
system.switch_cpus_1.commit.op_class_0::FloatCvt            0      0.00%     67.87% # Class of committed instruction
system.switch_cpus_1.commit.op_class_0::FloatMult            0      0.00%     67.87% # Class of committed instruction
system.switch_cpus_1.commit.op_class_0::FloatMultAcc            0      0.00%     67.87% # Class of committed instruction
system.switch_cpus_1.commit.op_class_0::FloatDiv            0      0.00%     67.87% # Class of committed instruction
system.switch_cpus_1.commit.op_class_0::FloatMisc            0      0.00%     67.87% # Class of committed instruction
system.switch_cpus_1.commit.op_class_0::FloatSqrt            0      0.00%     67.87% # Class of committed instruction
system.switch_cpus_1.commit.op_class_0::SimdAdd            0      0.00%     67.87% # Class of committed instruction
system.switch_cpus_1.commit.op_class_0::SimdAddAcc            0      0.00%     67.87% # Class of committed instruction
system.switch_cpus_1.commit.op_class_0::SimdAlu            0      0.00%     67.87% # Class of committed instruction
system.switch_cpus_1.commit.op_class_0::SimdCmp            0      0.00%     67.87% # Class of committed instruction
system.switch_cpus_1.commit.op_class_0::SimdCvt            0      0.00%     67.87% # Class of committed instruction
system.switch_cpus_1.commit.op_class_0::SimdMisc            0      0.00%     67.87% # Class of committed instruction
system.switch_cpus_1.commit.op_class_0::SimdMult            0      0.00%     67.87% # Class of committed instruction
system.switch_cpus_1.commit.op_class_0::SimdMultAcc            0      0.00%     67.87% # Class of committed instruction
system.switch_cpus_1.commit.op_class_0::SimdShift            0      0.00%     67.87% # Class of committed instruction
system.switch_cpus_1.commit.op_class_0::SimdShiftAcc            0      0.00%     67.87% # Class of committed instruction
system.switch_cpus_1.commit.op_class_0::SimdSqrt            0      0.00%     67.87% # Class of committed instruction
system.switch_cpus_1.commit.op_class_0::SimdFloatAdd            0      0.00%     67.87% # Class of committed instruction
system.switch_cpus_1.commit.op_class_0::SimdFloatAlu            0      0.00%     67.87% # Class of committed instruction
system.switch_cpus_1.commit.op_class_0::SimdFloatCmp            0      0.00%     67.87% # Class of committed instruction
system.switch_cpus_1.commit.op_class_0::SimdFloatCvt            0      0.00%     67.87% # Class of committed instruction
system.switch_cpus_1.commit.op_class_0::SimdFloatDiv            0      0.00%     67.87% # Class of committed instruction
system.switch_cpus_1.commit.op_class_0::SimdFloatMisc            0      0.00%     67.87% # Class of committed instruction
system.switch_cpus_1.commit.op_class_0::SimdFloatMult            0      0.00%     67.87% # Class of committed instruction
system.switch_cpus_1.commit.op_class_0::SimdFloatMultAcc            0      0.00%     67.87% # Class of committed instruction
system.switch_cpus_1.commit.op_class_0::SimdFloatSqrt            0      0.00%     67.87% # Class of committed instruction
system.switch_cpus_1.commit.op_class_0::MemRead     64254151     32.13%     99.99% # Class of committed instruction
system.switch_cpus_1.commit.op_class_0::MemWrite        12327      0.01%    100.00% # Class of committed instruction
system.switch_cpus_1.commit.op_class_0::FloatMemRead            0      0.00%    100.00% # Class of committed instruction
system.switch_cpus_1.commit.op_class_0::FloatMemWrite            0      0.00%    100.00% # Class of committed instruction
system.switch_cpus_1.commit.op_class_0::IprAccess            0      0.00%    100.00% # Class of committed instruction
system.switch_cpus_1.commit.op_class_0::InstPrefetch            0      0.00%    100.00% # Class of committed instruction
system.switch_cpus_1.commit.op_class_0::total    200001729                       # Class of committed instruction
system.switch_cpus_1.commit.bw_lim_events      6867174                       # number cycles where commit BW limit reached
system.switch_cpus_1.rob.rob_reads        11439911332                       # The number of ROB reads
system.switch_cpus_1.rob.rob_writes        6396932349                       # The number of ROB writes
system.switch_cpus_1.timesIdled                    11                       # Number of times that the entire CPU went into an idle state and unscheduled itself
system.switch_cpus_1.idleCycles                  2092                       # Total number of cycles that the CPU has spent unscheduled due to idling
system.switch_cpus_1.committedInsts         200000007                       # Number of Instructions Simulated
system.switch_cpus_1.committedOps           200000007                       # Number of Ops (including micro ops) Simulated
system.switch_cpus_1.cpi                    45.851608                       # CPI: Cycles Per Instruction
system.switch_cpus_1.cpi_total              45.851608                       # CPI: Total CPI of All Threads
system.switch_cpus_1.ipc                     0.021809                       # IPC: Instructions Per Cycle
system.switch_cpus_1.ipc_total               0.021809                       # IPC: Total IPC of All Threads
system.switch_cpus_1.int_regfile_reads     2717207224                       # number of integer regfile reads
system.switch_cpus_1.int_regfile_writes     945101283                       # number of integer regfile writes
system.switch_cpus_1.fp_regfile_writes             32                       # number of floating regfile writes
system.tol3bus.snoop_filter.tot_requests    284833383                       # Total number of requests made to the snoop filter.
system.tol3bus.snoop_filter.hit_single_requests    142414917                       # Number of requests hitting in the snoop filter with a single holder of the requested data.
system.tol3bus.snoop_filter.hit_multi_requests            0                       # Number of requests hitting in the snoop filter with multiple (>1) holders of the requested data.
system.tol3bus.snoop_filter.tot_snoops         128134                       # Total number of snoops made to the snoop filter.
system.tol3bus.snoop_filter.hit_single_snoops       128134                       # Number of snoops hitting in the snoop filter with a single holder of the requested data.
system.tol3bus.snoop_filter.hit_multi_snoops            0                       # Number of snoops hitting in the snoop filter with multiple (>1) holders of the requested data.
system.tol3bus.pwrStateResidencyTicks::UNDEFINED 179573079270231                       # Cumulative time (in ticks) in various power states
system.tol3bus.trans_dist::ReadResp         142404610                       # Transaction distribution
system.tol3bus.trans_dist::WritebackDirty      8074311                       # Transaction distribution
system.tol3bus.trans_dist::CleanEvict       200717058                       # Transaction distribution
system.tol3bus.trans_dist::ReadExReq            13856                       # Transaction distribution
system.tol3bus.trans_dist::ReadExResp           13856                       # Transaction distribution
system.tol3bus.trans_dist::ReadSharedReq    142404610                       # Transaction distribution
system.tol3bus.pkt_count_system.cpu.l2.mem_side::system.l3.cpu_side    427251849                       # Packet count per connected master and slave (bytes)
system.tol3bus.pkt_size_system.cpu.l2.mem_side::system.l3.cpu_side   9624576704                       # Cumulative packet size per connected master and slave (bytes)
system.tol3bus.snoops                        66376452                       # Total snoops (count)
system.tol3bus.snoopTraffic                   6961024                       # Total snoop traffic (bytes)
system.tol3bus.snoop_fanout::samples        208794918                       # Request fanout histogram
system.tol3bus.snoop_fanout::mean            0.000614                       # Request fanout histogram
system.tol3bus.snoop_fanout::stdev           0.024765                       # Request fanout histogram
system.tol3bus.snoop_fanout::underflows             0      0.00%      0.00% # Request fanout histogram
system.tol3bus.snoop_fanout::0              208666784     99.94%     99.94% # Request fanout histogram
system.tol3bus.snoop_fanout::1                 128134      0.06%    100.00% # Request fanout histogram
system.tol3bus.snoop_fanout::overflows              0      0.00%    100.00% # Request fanout histogram
system.tol3bus.snoop_fanout::min_value              0                       # Request fanout histogram
system.tol3bus.snoop_fanout::max_value              1                       # Request fanout histogram
system.tol3bus.snoop_fanout::total          208794918                       # Request fanout histogram
system.tol3bus.reqLayer0.occupancy        97502043024                       # Layer occupancy (ticks)
system.tol3bus.reqLayer0.utilization              0.6                       # Layer utilization (%)
system.tol3bus.respLayer0.occupancy       94850698356                       # Layer occupancy (ticks)
system.tol3bus.respLayer0.utilization             0.5                       # Layer utilization (%)

---------- End Simulation Statistics   ----------
