
---------- Begin Simulation Statistics ----------
sim_seconds                                  1.193257                       # Number of seconds simulated
sim_ticks                                1193257034847                       # Number of ticks simulated
final_tick                               18846598425777                       # Number of ticks from beginning of simulation (restored from checkpoints and never reset)
sim_freq                                 1000000000000                       # Frequency of simulated ticks
host_inst_rate                                 410004                       # Simulator instruction rate (inst/s)
host_op_rate                                   410004                       # Simulator op (including micro ops) rate (op/s)
host_tick_rate                              326160358                       # Simulator tick rate (ticks/s)
host_mem_usage                                2396776                       # Number of bytes of host memory used
host_seconds                                  3658.50                       # Real time elapsed on the host
sim_insts                                  1500000005                       # Number of instructions simulated
sim_ops                                    1500000005                       # Number of ops (including micro ops) simulated
system.voltage_domain.voltage                       1                       # Voltage in Volts
system.clk_domain.clock                          1000                       # Clock period in ticks
system.mem_ctrls0.pwrStateResidencyTicks::UNDEFINED 18846598425777                       # Cumulative time (in ticks) in various power states
system.mem_ctrls0.bytes_read::cpu.inst            192                       # Number of bytes read from this memory
system.mem_ctrls0.bytes_read::switch_cpus.inst       165568                       # Number of bytes read from this memory
system.mem_ctrls0.bytes_read::switch_cpus.data      7745408                       # Number of bytes read from this memory
system.mem_ctrls0.bytes_read::switch_cpus_1.inst        49344                       # Number of bytes read from this memory
system.mem_ctrls0.bytes_read::switch_cpus_1.data      2545792                       # Number of bytes read from this memory
system.mem_ctrls0.bytes_read::total          10506304                       # Number of bytes read from this memory
system.mem_ctrls0.bytes_inst_read::cpu.inst          192                       # Number of instructions bytes read from this memory
system.mem_ctrls0.bytes_inst_read::switch_cpus.inst       165568                       # Number of instructions bytes read from this memory
system.mem_ctrls0.bytes_inst_read::switch_cpus_1.inst        49344                       # Number of instructions bytes read from this memory
system.mem_ctrls0.bytes_inst_read::total       215104                       # Number of instructions bytes read from this memory
system.mem_ctrls0.bytes_written::writebacks      6374464                       # Number of bytes written to this memory
system.mem_ctrls0.bytes_written::total        6374464                       # Number of bytes written to this memory
system.mem_ctrls0.num_reads::cpu.inst               3                       # Number of read requests responded to by this memory
system.mem_ctrls0.num_reads::switch_cpus.inst         2587                       # Number of read requests responded to by this memory
system.mem_ctrls0.num_reads::switch_cpus.data       121022                       # Number of read requests responded to by this memory
system.mem_ctrls0.num_reads::switch_cpus_1.inst          771                       # Number of read requests responded to by this memory
system.mem_ctrls0.num_reads::switch_cpus_1.data        39778                       # Number of read requests responded to by this memory
system.mem_ctrls0.num_reads::total             164161                       # Number of read requests responded to by this memory
system.mem_ctrls0.num_writes::writebacks        99601                       # Number of write requests responded to by this memory
system.mem_ctrls0.num_writes::total             99601                       # Number of write requests responded to by this memory
system.mem_ctrls0.bw_read::cpu.inst               161                       # Total read bandwidth from this memory (bytes/s)
system.mem_ctrls0.bw_read::switch_cpus.inst       138753                       # Total read bandwidth from this memory (bytes/s)
system.mem_ctrls0.bw_read::switch_cpus.data      6490980                       # Total read bandwidth from this memory (bytes/s)
system.mem_ctrls0.bw_read::switch_cpus_1.inst        41352                       # Total read bandwidth from this memory (bytes/s)
system.mem_ctrls0.bw_read::switch_cpus_1.data      2133482                       # Total read bandwidth from this memory (bytes/s)
system.mem_ctrls0.bw_read::total              8804728                       # Total read bandwidth from this memory (bytes/s)
system.mem_ctrls0.bw_inst_read::cpu.inst          161                       # Instruction read bandwidth from this memory (bytes/s)
system.mem_ctrls0.bw_inst_read::switch_cpus.inst       138753                       # Instruction read bandwidth from this memory (bytes/s)
system.mem_ctrls0.bw_inst_read::switch_cpus_1.inst        41352                       # Instruction read bandwidth from this memory (bytes/s)
system.mem_ctrls0.bw_inst_read::total          180266                       # Instruction read bandwidth from this memory (bytes/s)
system.mem_ctrls0.bw_write::writebacks        5342071                       # Write bandwidth from this memory (bytes/s)
system.mem_ctrls0.bw_write::total             5342071                       # Write bandwidth from this memory (bytes/s)
system.mem_ctrls0.bw_total::writebacks        5342071                       # Total bandwidth to/from this memory (bytes/s)
system.mem_ctrls0.bw_total::cpu.inst              161                       # Total bandwidth to/from this memory (bytes/s)
system.mem_ctrls0.bw_total::switch_cpus.inst       138753                       # Total bandwidth to/from this memory (bytes/s)
system.mem_ctrls0.bw_total::switch_cpus.data      6490980                       # Total bandwidth to/from this memory (bytes/s)
system.mem_ctrls0.bw_total::switch_cpus_1.inst        41352                       # Total bandwidth to/from this memory (bytes/s)
system.mem_ctrls0.bw_total::switch_cpus_1.data      2133482                       # Total bandwidth to/from this memory (bytes/s)
system.mem_ctrls0.bw_total::total            14146799                       # Total bandwidth to/from this memory (bytes/s)
system.mem_ctrls0.readReqs                     164161                       # Number of read requests accepted
system.mem_ctrls0.writeReqs                     99601                       # Number of write requests accepted
system.mem_ctrls0.readBursts                   164161                       # Number of DRAM read bursts, including those serviced by the write queue
system.mem_ctrls0.writeBursts                   99601                       # Number of DRAM write bursts, including those merged in the write queue
system.mem_ctrls0.bytesReadDRAM              10503232                       # Total number of bytes read from DRAM
system.mem_ctrls0.bytesReadWrQ                   3072                       # Total number of bytes read from write queue
system.mem_ctrls0.bytesWritten                6372864                       # Total number of bytes written to DRAM
system.mem_ctrls0.bytesReadSys               10506304                       # Total read bytes from the system interface side
system.mem_ctrls0.bytesWrittenSys             6374464                       # Total written bytes from the system interface side
system.mem_ctrls0.servicedByWrQ                    48                       # Number of DRAM read bursts serviced by the write queue
system.mem_ctrls0.mergedWrBursts                    0                       # Number of DRAM write bursts merged with an existing one
system.mem_ctrls0.neitherReadNorWriteReqs            0                       # Number of requests that are neither read nor write
system.mem_ctrls0.perBankRdBursts::0            10081                       # Per bank write bursts
system.mem_ctrls0.perBankRdBursts::1            10360                       # Per bank write bursts
system.mem_ctrls0.perBankRdBursts::2            10526                       # Per bank write bursts
system.mem_ctrls0.perBankRdBursts::3            10915                       # Per bank write bursts
system.mem_ctrls0.perBankRdBursts::4            10785                       # Per bank write bursts
system.mem_ctrls0.perBankRdBursts::5            10283                       # Per bank write bursts
system.mem_ctrls0.perBankRdBursts::6             9781                       # Per bank write bursts
system.mem_ctrls0.perBankRdBursts::7            10006                       # Per bank write bursts
system.mem_ctrls0.perBankRdBursts::8            10648                       # Per bank write bursts
system.mem_ctrls0.perBankRdBursts::9            10561                       # Per bank write bursts
system.mem_ctrls0.perBankRdBursts::10           10048                       # Per bank write bursts
system.mem_ctrls0.perBankRdBursts::11           10290                       # Per bank write bursts
system.mem_ctrls0.perBankRdBursts::12           10075                       # Per bank write bursts
system.mem_ctrls0.perBankRdBursts::13           10023                       # Per bank write bursts
system.mem_ctrls0.perBankRdBursts::14            9959                       # Per bank write bursts
system.mem_ctrls0.perBankRdBursts::15            9772                       # Per bank write bursts
system.mem_ctrls0.perBankWrBursts::0             6408                       # Per bank write bursts
system.mem_ctrls0.perBankWrBursts::1             6542                       # Per bank write bursts
system.mem_ctrls0.perBankWrBursts::2             6264                       # Per bank write bursts
system.mem_ctrls0.perBankWrBursts::3             6454                       # Per bank write bursts
system.mem_ctrls0.perBankWrBursts::4             6258                       # Per bank write bursts
system.mem_ctrls0.perBankWrBursts::5             6174                       # Per bank write bursts
system.mem_ctrls0.perBankWrBursts::6             5878                       # Per bank write bursts
system.mem_ctrls0.perBankWrBursts::7             5948                       # Per bank write bursts
system.mem_ctrls0.perBankWrBursts::8             6088                       # Per bank write bursts
system.mem_ctrls0.perBankWrBursts::9             6117                       # Per bank write bursts
system.mem_ctrls0.perBankWrBursts::10            6301                       # Per bank write bursts
system.mem_ctrls0.perBankWrBursts::11            6546                       # Per bank write bursts
system.mem_ctrls0.perBankWrBursts::12            6284                       # Per bank write bursts
system.mem_ctrls0.perBankWrBursts::13            6122                       # Per bank write bursts
system.mem_ctrls0.perBankWrBursts::14            6038                       # Per bank write bursts
system.mem_ctrls0.perBankWrBursts::15            6154                       # Per bank write bursts
system.mem_ctrls0.numRdRetry                        0                       # Number of times read queue was full causing retry
system.mem_ctrls0.numWrRetry                        0                       # Number of times write queue was full causing retry
system.mem_ctrls0.totGap                 1193232760146                       # Total gap between requests
system.mem_ctrls0.readPktSize::0                    0                       # Read request sizes (log2)
system.mem_ctrls0.readPktSize::1                    0                       # Read request sizes (log2)
system.mem_ctrls0.readPktSize::2                    0                       # Read request sizes (log2)
system.mem_ctrls0.readPktSize::3                    0                       # Read request sizes (log2)
system.mem_ctrls0.readPktSize::4                    0                       # Read request sizes (log2)
system.mem_ctrls0.readPktSize::5                    0                       # Read request sizes (log2)
system.mem_ctrls0.readPktSize::6               164161                       # Read request sizes (log2)
system.mem_ctrls0.writePktSize::0                   0                       # Write request sizes (log2)
system.mem_ctrls0.writePktSize::1                   0                       # Write request sizes (log2)
system.mem_ctrls0.writePktSize::2                   0                       # Write request sizes (log2)
system.mem_ctrls0.writePktSize::3                   0                       # Write request sizes (log2)
system.mem_ctrls0.writePktSize::4                   0                       # Write request sizes (log2)
system.mem_ctrls0.writePktSize::5                   0                       # Write request sizes (log2)
system.mem_ctrls0.writePktSize::6               99601                       # Write request sizes (log2)
system.mem_ctrls0.rdQLenPdf::0                 160679                       # What read queue length does an incoming req see
system.mem_ctrls0.rdQLenPdf::1                   3366                       # What read queue length does an incoming req see
system.mem_ctrls0.rdQLenPdf::2                     68                       # What read queue length does an incoming req see
system.mem_ctrls0.rdQLenPdf::3                      0                       # What read queue length does an incoming req see
system.mem_ctrls0.rdQLenPdf::4                      0                       # What read queue length does an incoming req see
system.mem_ctrls0.rdQLenPdf::5                      0                       # What read queue length does an incoming req see
system.mem_ctrls0.rdQLenPdf::6                      0                       # What read queue length does an incoming req see
system.mem_ctrls0.rdQLenPdf::7                      0                       # What read queue length does an incoming req see
system.mem_ctrls0.rdQLenPdf::8                      0                       # What read queue length does an incoming req see
system.mem_ctrls0.rdQLenPdf::9                      0                       # What read queue length does an incoming req see
system.mem_ctrls0.rdQLenPdf::10                     0                       # What read queue length does an incoming req see
system.mem_ctrls0.rdQLenPdf::11                     0                       # What read queue length does an incoming req see
system.mem_ctrls0.rdQLenPdf::12                     0                       # What read queue length does an incoming req see
system.mem_ctrls0.rdQLenPdf::13                     0                       # What read queue length does an incoming req see
system.mem_ctrls0.rdQLenPdf::14                     0                       # What read queue length does an incoming req see
system.mem_ctrls0.rdQLenPdf::15                     0                       # What read queue length does an incoming req see
system.mem_ctrls0.rdQLenPdf::16                     0                       # What read queue length does an incoming req see
system.mem_ctrls0.rdQLenPdf::17                     0                       # What read queue length does an incoming req see
system.mem_ctrls0.rdQLenPdf::18                     0                       # What read queue length does an incoming req see
system.mem_ctrls0.rdQLenPdf::19                     0                       # What read queue length does an incoming req see
system.mem_ctrls0.rdQLenPdf::20                     0                       # What read queue length does an incoming req see
system.mem_ctrls0.rdQLenPdf::21                     0                       # What read queue length does an incoming req see
system.mem_ctrls0.rdQLenPdf::22                     0                       # What read queue length does an incoming req see
system.mem_ctrls0.rdQLenPdf::23                     0                       # What read queue length does an incoming req see
system.mem_ctrls0.rdQLenPdf::24                     0                       # What read queue length does an incoming req see
system.mem_ctrls0.rdQLenPdf::25                     0                       # What read queue length does an incoming req see
system.mem_ctrls0.rdQLenPdf::26                     0                       # What read queue length does an incoming req see
system.mem_ctrls0.rdQLenPdf::27                     0                       # What read queue length does an incoming req see
system.mem_ctrls0.rdQLenPdf::28                     0                       # What read queue length does an incoming req see
system.mem_ctrls0.rdQLenPdf::29                     0                       # What read queue length does an incoming req see
system.mem_ctrls0.rdQLenPdf::30                     0                       # What read queue length does an incoming req see
system.mem_ctrls0.rdQLenPdf::31                     0                       # What read queue length does an incoming req see
system.mem_ctrls0.wrQLenPdf::0                      2                       # What write queue length does an incoming req see
system.mem_ctrls0.wrQLenPdf::1                      2                       # What write queue length does an incoming req see
system.mem_ctrls0.wrQLenPdf::2                      2                       # What write queue length does an incoming req see
system.mem_ctrls0.wrQLenPdf::3                      2                       # What write queue length does an incoming req see
system.mem_ctrls0.wrQLenPdf::4                      2                       # What write queue length does an incoming req see
system.mem_ctrls0.wrQLenPdf::5                      2                       # What write queue length does an incoming req see
system.mem_ctrls0.wrQLenPdf::6                      2                       # What write queue length does an incoming req see
system.mem_ctrls0.wrQLenPdf::7                      2                       # What write queue length does an incoming req see
system.mem_ctrls0.wrQLenPdf::8                      2                       # What write queue length does an incoming req see
system.mem_ctrls0.wrQLenPdf::9                      2                       # What write queue length does an incoming req see
system.mem_ctrls0.wrQLenPdf::10                     2                       # What write queue length does an incoming req see
system.mem_ctrls0.wrQLenPdf::11                     2                       # What write queue length does an incoming req see
system.mem_ctrls0.wrQLenPdf::12                     2                       # What write queue length does an incoming req see
system.mem_ctrls0.wrQLenPdf::13                     2                       # What write queue length does an incoming req see
system.mem_ctrls0.wrQLenPdf::14                     2                       # What write queue length does an incoming req see
system.mem_ctrls0.wrQLenPdf::15                  4480                       # What write queue length does an incoming req see
system.mem_ctrls0.wrQLenPdf::16                  4523                       # What write queue length does an incoming req see
system.mem_ctrls0.wrQLenPdf::17                  5548                       # What write queue length does an incoming req see
system.mem_ctrls0.wrQLenPdf::18                  5637                       # What write queue length does an incoming req see
system.mem_ctrls0.wrQLenPdf::19                  5654                       # What write queue length does an incoming req see
system.mem_ctrls0.wrQLenPdf::20                  5663                       # What write queue length does an incoming req see
system.mem_ctrls0.wrQLenPdf::21                  5657                       # What write queue length does an incoming req see
system.mem_ctrls0.wrQLenPdf::22                  5660                       # What write queue length does an incoming req see
system.mem_ctrls0.wrQLenPdf::23                  5660                       # What write queue length does an incoming req see
system.mem_ctrls0.wrQLenPdf::24                  5655                       # What write queue length does an incoming req see
system.mem_ctrls0.wrQLenPdf::25                  5669                       # What write queue length does an incoming req see
system.mem_ctrls0.wrQLenPdf::26                  5708                       # What write queue length does an incoming req see
system.mem_ctrls0.wrQLenPdf::27                  5662                       # What write queue length does an incoming req see
system.mem_ctrls0.wrQLenPdf::28                  5653                       # What write queue length does an incoming req see
system.mem_ctrls0.wrQLenPdf::29                  5651                       # What write queue length does an incoming req see
system.mem_ctrls0.wrQLenPdf::30                  5666                       # What write queue length does an incoming req see
system.mem_ctrls0.wrQLenPdf::31                  5630                       # What write queue length does an incoming req see
system.mem_ctrls0.wrQLenPdf::32                  5629                       # What write queue length does an incoming req see
system.mem_ctrls0.wrQLenPdf::33                   126                       # What write queue length does an incoming req see
system.mem_ctrls0.wrQLenPdf::34                    25                       # What write queue length does an incoming req see
system.mem_ctrls0.wrQLenPdf::35                     7                       # What write queue length does an incoming req see
system.mem_ctrls0.wrQLenPdf::36                     3                       # What write queue length does an incoming req see
system.mem_ctrls0.wrQLenPdf::37                     2                       # What write queue length does an incoming req see
system.mem_ctrls0.wrQLenPdf::38                     2                       # What write queue length does an incoming req see
system.mem_ctrls0.wrQLenPdf::39                     1                       # What write queue length does an incoming req see
system.mem_ctrls0.wrQLenPdf::40                     0                       # What write queue length does an incoming req see
system.mem_ctrls0.wrQLenPdf::41                     0                       # What write queue length does an incoming req see
system.mem_ctrls0.wrQLenPdf::42                     0                       # What write queue length does an incoming req see
system.mem_ctrls0.wrQLenPdf::43                     0                       # What write queue length does an incoming req see
system.mem_ctrls0.wrQLenPdf::44                     0                       # What write queue length does an incoming req see
system.mem_ctrls0.wrQLenPdf::45                     0                       # What write queue length does an incoming req see
system.mem_ctrls0.wrQLenPdf::46                     0                       # What write queue length does an incoming req see
system.mem_ctrls0.wrQLenPdf::47                     0                       # What write queue length does an incoming req see
system.mem_ctrls0.wrQLenPdf::48                     0                       # What write queue length does an incoming req see
system.mem_ctrls0.wrQLenPdf::49                     0                       # What write queue length does an incoming req see
system.mem_ctrls0.wrQLenPdf::50                     0                       # What write queue length does an incoming req see
system.mem_ctrls0.wrQLenPdf::51                     0                       # What write queue length does an incoming req see
system.mem_ctrls0.wrQLenPdf::52                     0                       # What write queue length does an incoming req see
system.mem_ctrls0.wrQLenPdf::53                     0                       # What write queue length does an incoming req see
system.mem_ctrls0.wrQLenPdf::54                     0                       # What write queue length does an incoming req see
system.mem_ctrls0.wrQLenPdf::55                     0                       # What write queue length does an incoming req see
system.mem_ctrls0.wrQLenPdf::56                     0                       # What write queue length does an incoming req see
system.mem_ctrls0.wrQLenPdf::57                     0                       # What write queue length does an incoming req see
system.mem_ctrls0.wrQLenPdf::58                     0                       # What write queue length does an incoming req see
system.mem_ctrls0.wrQLenPdf::59                     0                       # What write queue length does an incoming req see
system.mem_ctrls0.wrQLenPdf::60                     0                       # What write queue length does an incoming req see
system.mem_ctrls0.wrQLenPdf::61                     0                       # What write queue length does an incoming req see
system.mem_ctrls0.wrQLenPdf::62                     0                       # What write queue length does an incoming req see
system.mem_ctrls0.wrQLenPdf::63                     0                       # What write queue length does an incoming req see
system.mem_ctrls0.bytesPerActivate::samples       230296                       # Bytes accessed per row activation
system.mem_ctrls0.bytesPerActivate::mean    73.280022                       # Bytes accessed per row activation
system.mem_ctrls0.bytesPerActivate::gmean    68.537434                       # Bytes accessed per row activation
system.mem_ctrls0.bytesPerActivate::stdev    56.589453                       # Bytes accessed per row activation
system.mem_ctrls0.bytesPerActivate::0-127       212677     92.35%     92.35% # Bytes accessed per row activation
system.mem_ctrls0.bytesPerActivate::128-255        15434      6.70%     99.05% # Bytes accessed per row activation
system.mem_ctrls0.bytesPerActivate::256-383          903      0.39%     99.44% # Bytes accessed per row activation
system.mem_ctrls0.bytesPerActivate::384-511          318      0.14%     99.58% # Bytes accessed per row activation
system.mem_ctrls0.bytesPerActivate::512-639          222      0.10%     99.68% # Bytes accessed per row activation
system.mem_ctrls0.bytesPerActivate::640-767          134      0.06%     99.74% # Bytes accessed per row activation
system.mem_ctrls0.bytesPerActivate::768-895           96      0.04%     99.78% # Bytes accessed per row activation
system.mem_ctrls0.bytesPerActivate::896-1023          179      0.08%     99.86% # Bytes accessed per row activation
system.mem_ctrls0.bytesPerActivate::1024-1151          333      0.14%    100.00% # Bytes accessed per row activation
system.mem_ctrls0.bytesPerActivate::total       230296                       # Bytes accessed per row activation
system.mem_ctrls0.rdPerTurnAround::samples         5630                       # Reads before turning the bus around for writes
system.mem_ctrls0.rdPerTurnAround::mean     29.148135                       # Reads before turning the bus around for writes
system.mem_ctrls0.rdPerTurnAround::stdev   350.135241                       # Reads before turning the bus around for writes
system.mem_ctrls0.rdPerTurnAround::0-1023         5629     99.98%     99.98% # Reads before turning the bus around for writes
system.mem_ctrls0.rdPerTurnAround::25600-26623            1      0.02%    100.00% # Reads before turning the bus around for writes
system.mem_ctrls0.rdPerTurnAround::total         5630                       # Reads before turning the bus around for writes
system.mem_ctrls0.wrPerTurnAround::samples         5630                       # Writes before turning the bus around for reads
system.mem_ctrls0.wrPerTurnAround::mean     17.686679                       # Writes before turning the bus around for reads
system.mem_ctrls0.wrPerTurnAround::gmean    17.662356                       # Writes before turning the bus around for reads
system.mem_ctrls0.wrPerTurnAround::stdev     0.917768                       # Writes before turning the bus around for reads
system.mem_ctrls0.wrPerTurnAround::16            1110     19.72%     19.72% # Writes before turning the bus around for reads
system.mem_ctrls0.wrPerTurnAround::17              32      0.57%     20.28% # Writes before turning the bus around for reads
system.mem_ctrls0.wrPerTurnAround::18            4096     72.75%     93.04% # Writes before turning the bus around for reads
system.mem_ctrls0.wrPerTurnAround::19             329      5.84%     98.88% # Writes before turning the bus around for reads
system.mem_ctrls0.wrPerTurnAround::20              45      0.80%     99.68% # Writes before turning the bus around for reads
system.mem_ctrls0.wrPerTurnAround::21              13      0.23%     99.91% # Writes before turning the bus around for reads
system.mem_ctrls0.wrPerTurnAround::22               2      0.04%     99.95% # Writes before turning the bus around for reads
system.mem_ctrls0.wrPerTurnAround::24               1      0.02%     99.96% # Writes before turning the bus around for reads
system.mem_ctrls0.wrPerTurnAround::26               2      0.04%    100.00% # Writes before turning the bus around for reads
system.mem_ctrls0.wrPerTurnAround::total         5630                       # Writes before turning the bus around for reads
system.mem_ctrls0.totQLat                 29078127815                       # Total ticks spent queuing
system.mem_ctrls0.totMemAccLat            32155246565                       # Total ticks spent from burst creation until serviced by the DRAM
system.mem_ctrls0.totBusLat                 820565000                       # Total ticks spent in databus transfers
system.mem_ctrls0.avgQLat                   177183.57                       # Average queueing delay per DRAM burst
system.mem_ctrls0.avgBusLat                   5000.00                       # Average bus latency per DRAM burst
system.mem_ctrls0.avgMemAccLat              195933.57                       # Average memory access latency per DRAM burst
system.mem_ctrls0.avgRdBW                        8.80                       # Average DRAM read bandwidth in MiByte/s
system.mem_ctrls0.avgWrBW                        5.34                       # Average achieved write bandwidth in MiByte/s
system.mem_ctrls0.avgRdBWSys                     8.80                       # Average system read bandwidth in MiByte/s
system.mem_ctrls0.avgWrBWSys                     5.34                       # Average system write bandwidth in MiByte/s
system.mem_ctrls0.peakBW                     12800.00                       # Theoretical peak bandwidth in MiByte/s
system.mem_ctrls0.busUtil                        0.11                       # Data bus utilization in percentage
system.mem_ctrls0.busUtilRead                    0.07                       # Data bus utilization in percentage for reads
system.mem_ctrls0.busUtilWrite                   0.04                       # Data bus utilization in percentage for writes
system.mem_ctrls0.avgRdQLen                      1.01                       # Average read queue length when enqueuing
system.mem_ctrls0.avgWrQLen                     21.08                       # Average write queue length when enqueuing
system.mem_ctrls0.readRowHits                   22831                       # Number of row buffer hits during reads
system.mem_ctrls0.writeRowHits                  10562                       # Number of row buffer hits during writes
system.mem_ctrls0.readRowHitRate                13.91                       # Row buffer hit rate for reads
system.mem_ctrls0.writeRowHitRate               10.60                       # Row buffer hit rate for writes
system.mem_ctrls0.avgGap                   4523899.43                       # Average gap between requests
system.mem_ctrls0.pageHitRate                   12.66                       # Row buffer hit rate, read and write combined
system.mem_ctrls0_0.actEnergy               826647780                       # Energy for activate commands per rank (pJ)
system.mem_ctrls0_0.preEnergy               439373715                       # Energy for precharge commands per rank (pJ)
system.mem_ctrls0_0.readEnergy              590742180                       # Energy for read commands per rank (pJ)
system.mem_ctrls0_0.writeEnergy             260613720                       # Energy for write commands per rank (pJ)
system.mem_ctrls0_0.refreshEnergy        61172046000.000015                       # Energy for refresh commands per rank (pJ)
system.mem_ctrls0_0.actBackEnergy         21335394690                       # Energy for active background per rank (pJ)
system.mem_ctrls0_0.preBackEnergy          3546144000                       # Energy for precharge background per rank (pJ)
system.mem_ctrls0_0.actPowerDownEnergy   122195396730                       # Energy for active power-down per rank (pJ)
system.mem_ctrls0_0.prePowerDownEnergy   101649072000                       # Energy for precharge power-down per rank (pJ)
system.mem_ctrls0_0.selfRefreshEnergy    159283534305                       # Energy for self refresh per rank (pJ)
system.mem_ctrls0_0.totalEnergy          471327260010                       # Total energy per rank (pJ)
system.mem_ctrls0_0.averagePower           394.992230                       # Core power per rank (mW)
system.mem_ctrls0_0.totalIdleTime        1137151692942                       # Total Idle time Per DRAM Rank
system.mem_ctrls0_0.memoryStateTime::IDLE   7076436688                       # Time in different power states
system.mem_ctrls0_0.memoryStateTime::REF  26033406000                       # Time in different power states
system.mem_ctrls0_0.memoryStateTime::SREF 604487656597                       # Time in different power states
system.mem_ctrls0_0.memoryStateTime::PRE_PDN 264711041172                       # Time in different power states
system.mem_ctrls0_0.memoryStateTime::ACT  22976047489                       # Time in different power states
system.mem_ctrls0_0.memoryStateTime::ACT_PDN 267972446901                       # Time in different power states
system.mem_ctrls0_1.actEnergy               817665660                       # Energy for activate commands per rank (pJ)
system.mem_ctrls0_1.preEnergy               434599605                       # Energy for precharge commands per rank (pJ)
system.mem_ctrls0_1.readEnergy              581024640                       # Energy for read commands per rank (pJ)
system.mem_ctrls0_1.writeEnergy             259173000                       # Energy for write commands per rank (pJ)
system.mem_ctrls0_1.refreshEnergy        61232895360.000015                       # Energy for refresh commands per rank (pJ)
system.mem_ctrls0_1.actBackEnergy         21454711650                       # Energy for active background per rank (pJ)
system.mem_ctrls0_1.preBackEnergy          3568680000                       # Energy for precharge background per rank (pJ)
system.mem_ctrls0_1.actPowerDownEnergy   121616760090                       # Energy for active power-down per rank (pJ)
system.mem_ctrls0_1.prePowerDownEnergy   101688803040                       # Energy for precharge power-down per rank (pJ)
system.mem_ctrls0_1.selfRefreshEnergy    159609048345                       # Energy for self refresh per rank (pJ)
system.mem_ctrls0_1.totalEnergy          471291318930                       # Total energy per rank (pJ)
system.mem_ctrls0_1.averagePower           394.962108                       # Core power per rank (mW)
system.mem_ctrls0_1.totalIdleTime        1136829317309                       # Total Idle time Per DRAM Rank
system.mem_ctrls0_1.memoryStateTime::IDLE   7135607194                       # Time in different power states
system.mem_ctrls0_1.memoryStateTime::REF  26060316000                       # Time in different power states
system.mem_ctrls0_1.memoryStateTime::SREF 605333623521                       # Time in different power states
system.mem_ctrls0_1.memoryStateTime::PRE_PDN 264814752294                       # Time in different power states
system.mem_ctrls0_1.memoryStateTime::ACT  23209429689                       # Time in different power states
system.mem_ctrls0_1.memoryStateTime::ACT_PDN 266703306149                       # Time in different power states
system.mem_ctrls1.pwrStateResidencyTicks::UNDEFINED 18846598425777                       # Cumulative time (in ticks) in various power states
system.mem_ctrls1.bytes_read::cpu.inst            128                       # Number of bytes read from this memory
system.mem_ctrls1.bytes_read::cpu.data            192                       # Number of bytes read from this memory
system.mem_ctrls1.bytes_read::switch_cpus.inst       162304                       # Number of bytes read from this memory
system.mem_ctrls1.bytes_read::switch_cpus.data      7777536                       # Number of bytes read from this memory
system.mem_ctrls1.bytes_read::switch_cpus_1.inst        49536                       # Number of bytes read from this memory
system.mem_ctrls1.bytes_read::switch_cpus_1.data      2547200                       # Number of bytes read from this memory
system.mem_ctrls1.bytes_read::total          10536896                       # Number of bytes read from this memory
system.mem_ctrls1.bytes_inst_read::cpu.inst          128                       # Number of instructions bytes read from this memory
system.mem_ctrls1.bytes_inst_read::switch_cpus.inst       162304                       # Number of instructions bytes read from this memory
system.mem_ctrls1.bytes_inst_read::switch_cpus_1.inst        49536                       # Number of instructions bytes read from this memory
system.mem_ctrls1.bytes_inst_read::total       211968                       # Number of instructions bytes read from this memory
system.mem_ctrls1.bytes_written::writebacks      6402048                       # Number of bytes written to this memory
system.mem_ctrls1.bytes_written::total        6402048                       # Number of bytes written to this memory
system.mem_ctrls1.num_reads::cpu.inst               2                       # Number of read requests responded to by this memory
system.mem_ctrls1.num_reads::cpu.data               3                       # Number of read requests responded to by this memory
system.mem_ctrls1.num_reads::switch_cpus.inst         2536                       # Number of read requests responded to by this memory
system.mem_ctrls1.num_reads::switch_cpus.data       121524                       # Number of read requests responded to by this memory
system.mem_ctrls1.num_reads::switch_cpus_1.inst          774                       # Number of read requests responded to by this memory
system.mem_ctrls1.num_reads::switch_cpus_1.data        39800                       # Number of read requests responded to by this memory
system.mem_ctrls1.num_reads::total             164639                       # Number of read requests responded to by this memory
system.mem_ctrls1.num_writes::writebacks       100032                       # Number of write requests responded to by this memory
system.mem_ctrls1.num_writes::total            100032                       # Number of write requests responded to by this memory
system.mem_ctrls1.bw_read::cpu.inst               107                       # Total read bandwidth from this memory (bytes/s)
system.mem_ctrls1.bw_read::cpu.data               161                       # Total read bandwidth from this memory (bytes/s)
system.mem_ctrls1.bw_read::switch_cpus.inst       136018                       # Total read bandwidth from this memory (bytes/s)
system.mem_ctrls1.bw_read::switch_cpus.data      6517905                       # Total read bandwidth from this memory (bytes/s)
system.mem_ctrls1.bw_read::switch_cpus_1.inst        41513                       # Total read bandwidth from this memory (bytes/s)
system.mem_ctrls1.bw_read::switch_cpus_1.data      2134662                       # Total read bandwidth from this memory (bytes/s)
system.mem_ctrls1.bw_read::total              8830366                       # Total read bandwidth from this memory (bytes/s)
system.mem_ctrls1.bw_inst_read::cpu.inst          107                       # Instruction read bandwidth from this memory (bytes/s)
system.mem_ctrls1.bw_inst_read::switch_cpus.inst       136018                       # Instruction read bandwidth from this memory (bytes/s)
system.mem_ctrls1.bw_inst_read::switch_cpus_1.inst        41513                       # Instruction read bandwidth from this memory (bytes/s)
system.mem_ctrls1.bw_inst_read::total          177638                       # Instruction read bandwidth from this memory (bytes/s)
system.mem_ctrls1.bw_write::writebacks        5365188                       # Write bandwidth from this memory (bytes/s)
system.mem_ctrls1.bw_write::total             5365188                       # Write bandwidth from this memory (bytes/s)
system.mem_ctrls1.bw_total::writebacks        5365188                       # Total bandwidth to/from this memory (bytes/s)
system.mem_ctrls1.bw_total::cpu.inst              107                       # Total bandwidth to/from this memory (bytes/s)
system.mem_ctrls1.bw_total::cpu.data              161                       # Total bandwidth to/from this memory (bytes/s)
system.mem_ctrls1.bw_total::switch_cpus.inst       136018                       # Total bandwidth to/from this memory (bytes/s)
system.mem_ctrls1.bw_total::switch_cpus.data      6517905                       # Total bandwidth to/from this memory (bytes/s)
system.mem_ctrls1.bw_total::switch_cpus_1.inst        41513                       # Total bandwidth to/from this memory (bytes/s)
system.mem_ctrls1.bw_total::switch_cpus_1.data      2134662                       # Total bandwidth to/from this memory (bytes/s)
system.mem_ctrls1.bw_total::total            14195553                       # Total bandwidth to/from this memory (bytes/s)
system.mem_ctrls1.readReqs                     164639                       # Number of read requests accepted
system.mem_ctrls1.writeReqs                    100032                       # Number of write requests accepted
system.mem_ctrls1.readBursts                   164639                       # Number of DRAM read bursts, including those serviced by the write queue
system.mem_ctrls1.writeBursts                  100032                       # Number of DRAM write bursts, including those merged in the write queue
system.mem_ctrls1.bytesReadDRAM              10533056                       # Total number of bytes read from DRAM
system.mem_ctrls1.bytesReadWrQ                   3840                       # Total number of bytes read from write queue
system.mem_ctrls1.bytesWritten                6400448                       # Total number of bytes written to DRAM
system.mem_ctrls1.bytesReadSys               10536896                       # Total read bytes from the system interface side
system.mem_ctrls1.bytesWrittenSys             6402048                       # Total written bytes from the system interface side
system.mem_ctrls1.servicedByWrQ                    60                       # Number of DRAM read bursts serviced by the write queue
system.mem_ctrls1.mergedWrBursts                    0                       # Number of DRAM write bursts merged with an existing one
system.mem_ctrls1.neitherReadNorWriteReqs            0                       # Number of requests that are neither read nor write
system.mem_ctrls1.perBankRdBursts::0            10127                       # Per bank write bursts
system.mem_ctrls1.perBankRdBursts::1            10285                       # Per bank write bursts
system.mem_ctrls1.perBankRdBursts::2            10502                       # Per bank write bursts
system.mem_ctrls1.perBankRdBursts::3            10832                       # Per bank write bursts
system.mem_ctrls1.perBankRdBursts::4            10708                       # Per bank write bursts
system.mem_ctrls1.perBankRdBursts::5            10455                       # Per bank write bursts
system.mem_ctrls1.perBankRdBursts::6             9768                       # Per bank write bursts
system.mem_ctrls1.perBankRdBursts::7            10174                       # Per bank write bursts
system.mem_ctrls1.perBankRdBursts::8            10578                       # Per bank write bursts
system.mem_ctrls1.perBankRdBursts::9            10693                       # Per bank write bursts
system.mem_ctrls1.perBankRdBursts::10           10190                       # Per bank write bursts
system.mem_ctrls1.perBankRdBursts::11           10492                       # Per bank write bursts
system.mem_ctrls1.perBankRdBursts::12           10107                       # Per bank write bursts
system.mem_ctrls1.perBankRdBursts::13            9954                       # Per bank write bursts
system.mem_ctrls1.perBankRdBursts::14            9834                       # Per bank write bursts
system.mem_ctrls1.perBankRdBursts::15            9880                       # Per bank write bursts
system.mem_ctrls1.perBankWrBursts::0             6402                       # Per bank write bursts
system.mem_ctrls1.perBankWrBursts::1             6508                       # Per bank write bursts
system.mem_ctrls1.perBankWrBursts::2             6283                       # Per bank write bursts
system.mem_ctrls1.perBankWrBursts::3             6354                       # Per bank write bursts
system.mem_ctrls1.perBankWrBursts::4             6269                       # Per bank write bursts
system.mem_ctrls1.perBankWrBursts::5             6221                       # Per bank write bursts
system.mem_ctrls1.perBankWrBursts::6             5889                       # Per bank write bursts
system.mem_ctrls1.perBankWrBursts::7             6024                       # Per bank write bursts
system.mem_ctrls1.perBankWrBursts::8             6058                       # Per bank write bursts
system.mem_ctrls1.perBankWrBursts::9             6175                       # Per bank write bursts
system.mem_ctrls1.perBankWrBursts::10            6323                       # Per bank write bursts
system.mem_ctrls1.perBankWrBursts::11            6757                       # Per bank write bursts
system.mem_ctrls1.perBankWrBursts::12            6384                       # Per bank write bursts
system.mem_ctrls1.perBankWrBursts::13            6089                       # Per bank write bursts
system.mem_ctrls1.perBankWrBursts::14            6022                       # Per bank write bursts
system.mem_ctrls1.perBankWrBursts::15            6249                       # Per bank write bursts
system.mem_ctrls1.numRdRetry                        0                       # Number of times read queue was full causing retry
system.mem_ctrls1.numWrRetry                        0                       # Number of times write queue was full causing retry
system.mem_ctrls1.totGap                 1193228139105                       # Total gap between requests
system.mem_ctrls1.readPktSize::0                    0                       # Read request sizes (log2)
system.mem_ctrls1.readPktSize::1                    0                       # Read request sizes (log2)
system.mem_ctrls1.readPktSize::2                    0                       # Read request sizes (log2)
system.mem_ctrls1.readPktSize::3                    0                       # Read request sizes (log2)
system.mem_ctrls1.readPktSize::4                    0                       # Read request sizes (log2)
system.mem_ctrls1.readPktSize::5                    0                       # Read request sizes (log2)
system.mem_ctrls1.readPktSize::6               164639                       # Read request sizes (log2)
system.mem_ctrls1.writePktSize::0                   0                       # Write request sizes (log2)
system.mem_ctrls1.writePktSize::1                   0                       # Write request sizes (log2)
system.mem_ctrls1.writePktSize::2                   0                       # Write request sizes (log2)
system.mem_ctrls1.writePktSize::3                   0                       # Write request sizes (log2)
system.mem_ctrls1.writePktSize::4                   0                       # Write request sizes (log2)
system.mem_ctrls1.writePktSize::5                   0                       # Write request sizes (log2)
system.mem_ctrls1.writePktSize::6              100032                       # Write request sizes (log2)
system.mem_ctrls1.rdQLenPdf::0                 161099                       # What read queue length does an incoming req see
system.mem_ctrls1.rdQLenPdf::1                   3421                       # What read queue length does an incoming req see
system.mem_ctrls1.rdQLenPdf::2                     58                       # What read queue length does an incoming req see
system.mem_ctrls1.rdQLenPdf::3                      1                       # What read queue length does an incoming req see
system.mem_ctrls1.rdQLenPdf::4                      0                       # What read queue length does an incoming req see
system.mem_ctrls1.rdQLenPdf::5                      0                       # What read queue length does an incoming req see
system.mem_ctrls1.rdQLenPdf::6                      0                       # What read queue length does an incoming req see
system.mem_ctrls1.rdQLenPdf::7                      0                       # What read queue length does an incoming req see
system.mem_ctrls1.rdQLenPdf::8                      0                       # What read queue length does an incoming req see
system.mem_ctrls1.rdQLenPdf::9                      0                       # What read queue length does an incoming req see
system.mem_ctrls1.rdQLenPdf::10                     0                       # What read queue length does an incoming req see
system.mem_ctrls1.rdQLenPdf::11                     0                       # What read queue length does an incoming req see
system.mem_ctrls1.rdQLenPdf::12                     0                       # What read queue length does an incoming req see
system.mem_ctrls1.rdQLenPdf::13                     0                       # What read queue length does an incoming req see
system.mem_ctrls1.rdQLenPdf::14                     0                       # What read queue length does an incoming req see
system.mem_ctrls1.rdQLenPdf::15                     0                       # What read queue length does an incoming req see
system.mem_ctrls1.rdQLenPdf::16                     0                       # What read queue length does an incoming req see
system.mem_ctrls1.rdQLenPdf::17                     0                       # What read queue length does an incoming req see
system.mem_ctrls1.rdQLenPdf::18                     0                       # What read queue length does an incoming req see
system.mem_ctrls1.rdQLenPdf::19                     0                       # What read queue length does an incoming req see
system.mem_ctrls1.rdQLenPdf::20                     0                       # What read queue length does an incoming req see
system.mem_ctrls1.rdQLenPdf::21                     0                       # What read queue length does an incoming req see
system.mem_ctrls1.rdQLenPdf::22                     0                       # What read queue length does an incoming req see
system.mem_ctrls1.rdQLenPdf::23                     0                       # What read queue length does an incoming req see
system.mem_ctrls1.rdQLenPdf::24                     0                       # What read queue length does an incoming req see
system.mem_ctrls1.rdQLenPdf::25                     0                       # What read queue length does an incoming req see
system.mem_ctrls1.rdQLenPdf::26                     0                       # What read queue length does an incoming req see
system.mem_ctrls1.rdQLenPdf::27                     0                       # What read queue length does an incoming req see
system.mem_ctrls1.rdQLenPdf::28                     0                       # What read queue length does an incoming req see
system.mem_ctrls1.rdQLenPdf::29                     0                       # What read queue length does an incoming req see
system.mem_ctrls1.rdQLenPdf::30                     0                       # What read queue length does an incoming req see
system.mem_ctrls1.rdQLenPdf::31                     0                       # What read queue length does an incoming req see
system.mem_ctrls1.wrQLenPdf::0                      2                       # What write queue length does an incoming req see
system.mem_ctrls1.wrQLenPdf::1                      2                       # What write queue length does an incoming req see
system.mem_ctrls1.wrQLenPdf::2                      2                       # What write queue length does an incoming req see
system.mem_ctrls1.wrQLenPdf::3                      2                       # What write queue length does an incoming req see
system.mem_ctrls1.wrQLenPdf::4                      2                       # What write queue length does an incoming req see
system.mem_ctrls1.wrQLenPdf::5                      2                       # What write queue length does an incoming req see
system.mem_ctrls1.wrQLenPdf::6                      2                       # What write queue length does an incoming req see
system.mem_ctrls1.wrQLenPdf::7                      2                       # What write queue length does an incoming req see
system.mem_ctrls1.wrQLenPdf::8                      2                       # What write queue length does an incoming req see
system.mem_ctrls1.wrQLenPdf::9                      2                       # What write queue length does an incoming req see
system.mem_ctrls1.wrQLenPdf::10                     2                       # What write queue length does an incoming req see
system.mem_ctrls1.wrQLenPdf::11                     2                       # What write queue length does an incoming req see
system.mem_ctrls1.wrQLenPdf::12                     2                       # What write queue length does an incoming req see
system.mem_ctrls1.wrQLenPdf::13                     2                       # What write queue length does an incoming req see
system.mem_ctrls1.wrQLenPdf::14                     2                       # What write queue length does an incoming req see
system.mem_ctrls1.wrQLenPdf::15                  4501                       # What write queue length does an incoming req see
system.mem_ctrls1.wrQLenPdf::16                  4562                       # What write queue length does an incoming req see
system.mem_ctrls1.wrQLenPdf::17                  5556                       # What write queue length does an incoming req see
system.mem_ctrls1.wrQLenPdf::18                  5643                       # What write queue length does an incoming req see
system.mem_ctrls1.wrQLenPdf::19                  5672                       # What write queue length does an incoming req see
system.mem_ctrls1.wrQLenPdf::20                  5693                       # What write queue length does an incoming req see
system.mem_ctrls1.wrQLenPdf::21                  5688                       # What write queue length does an incoming req see
system.mem_ctrls1.wrQLenPdf::22                  5692                       # What write queue length does an incoming req see
system.mem_ctrls1.wrQLenPdf::23                  5682                       # What write queue length does an incoming req see
system.mem_ctrls1.wrQLenPdf::24                  5698                       # What write queue length does an incoming req see
system.mem_ctrls1.wrQLenPdf::25                  5691                       # What write queue length does an incoming req see
system.mem_ctrls1.wrQLenPdf::26                  5733                       # What write queue length does an incoming req see
system.mem_ctrls1.wrQLenPdf::27                  5701                       # What write queue length does an incoming req see
system.mem_ctrls1.wrQLenPdf::28                  5675                       # What write queue length does an incoming req see
system.mem_ctrls1.wrQLenPdf::29                  5672                       # What write queue length does an incoming req see
system.mem_ctrls1.wrQLenPdf::30                  5687                       # What write queue length does an incoming req see
system.mem_ctrls1.wrQLenPdf::31                  5652                       # What write queue length does an incoming req see
system.mem_ctrls1.wrQLenPdf::32                  5651                       # What write queue length does an incoming req see
system.mem_ctrls1.wrQLenPdf::33                   121                       # What write queue length does an incoming req see
system.mem_ctrls1.wrQLenPdf::34                    23                       # What write queue length does an incoming req see
system.mem_ctrls1.wrQLenPdf::35                     6                       # What write queue length does an incoming req see
system.mem_ctrls1.wrQLenPdf::36                     3                       # What write queue length does an incoming req see
system.mem_ctrls1.wrQLenPdf::37                     0                       # What write queue length does an incoming req see
system.mem_ctrls1.wrQLenPdf::38                     0                       # What write queue length does an incoming req see
system.mem_ctrls1.wrQLenPdf::39                     0                       # What write queue length does an incoming req see
system.mem_ctrls1.wrQLenPdf::40                     0                       # What write queue length does an incoming req see
system.mem_ctrls1.wrQLenPdf::41                     0                       # What write queue length does an incoming req see
system.mem_ctrls1.wrQLenPdf::42                     0                       # What write queue length does an incoming req see
system.mem_ctrls1.wrQLenPdf::43                     0                       # What write queue length does an incoming req see
system.mem_ctrls1.wrQLenPdf::44                     0                       # What write queue length does an incoming req see
system.mem_ctrls1.wrQLenPdf::45                     0                       # What write queue length does an incoming req see
system.mem_ctrls1.wrQLenPdf::46                     0                       # What write queue length does an incoming req see
system.mem_ctrls1.wrQLenPdf::47                     0                       # What write queue length does an incoming req see
system.mem_ctrls1.wrQLenPdf::48                     0                       # What write queue length does an incoming req see
system.mem_ctrls1.wrQLenPdf::49                     0                       # What write queue length does an incoming req see
system.mem_ctrls1.wrQLenPdf::50                     0                       # What write queue length does an incoming req see
system.mem_ctrls1.wrQLenPdf::51                     0                       # What write queue length does an incoming req see
system.mem_ctrls1.wrQLenPdf::52                     0                       # What write queue length does an incoming req see
system.mem_ctrls1.wrQLenPdf::53                     0                       # What write queue length does an incoming req see
system.mem_ctrls1.wrQLenPdf::54                     0                       # What write queue length does an incoming req see
system.mem_ctrls1.wrQLenPdf::55                     0                       # What write queue length does an incoming req see
system.mem_ctrls1.wrQLenPdf::56                     0                       # What write queue length does an incoming req see
system.mem_ctrls1.wrQLenPdf::57                     0                       # What write queue length does an incoming req see
system.mem_ctrls1.wrQLenPdf::58                     0                       # What write queue length does an incoming req see
system.mem_ctrls1.wrQLenPdf::59                     0                       # What write queue length does an incoming req see
system.mem_ctrls1.wrQLenPdf::60                     0                       # What write queue length does an incoming req see
system.mem_ctrls1.wrQLenPdf::61                     0                       # What write queue length does an incoming req see
system.mem_ctrls1.wrQLenPdf::62                     0                       # What write queue length does an incoming req see
system.mem_ctrls1.wrQLenPdf::63                     0                       # What write queue length does an incoming req see
system.mem_ctrls1.bytesPerActivate::samples       231524                       # Bytes accessed per row activation
system.mem_ctrls1.bytesPerActivate::mean    73.139303                       # Bytes accessed per row activation
system.mem_ctrls1.bytesPerActivate::gmean    68.479792                       # Bytes accessed per row activation
system.mem_ctrls1.bytesPerActivate::stdev    56.261429                       # Bytes accessed per row activation
system.mem_ctrls1.bytesPerActivate::0-127       213910     92.39%     92.39% # Bytes accessed per row activation
system.mem_ctrls1.bytesPerActivate::128-255        15526      6.71%     99.10% # Bytes accessed per row activation
system.mem_ctrls1.bytesPerActivate::256-383          833      0.36%     99.46% # Bytes accessed per row activation
system.mem_ctrls1.bytesPerActivate::384-511          304      0.13%     99.59% # Bytes accessed per row activation
system.mem_ctrls1.bytesPerActivate::512-639          199      0.09%     99.68% # Bytes accessed per row activation
system.mem_ctrls1.bytesPerActivate::640-767          139      0.06%     99.74% # Bytes accessed per row activation
system.mem_ctrls1.bytesPerActivate::768-895          102      0.04%     99.78% # Bytes accessed per row activation
system.mem_ctrls1.bytesPerActivate::896-1023          176      0.08%     99.86% # Bytes accessed per row activation
system.mem_ctrls1.bytesPerActivate::1024-1151          335      0.14%    100.00% # Bytes accessed per row activation
system.mem_ctrls1.bytesPerActivate::total       231524                       # Bytes accessed per row activation
system.mem_ctrls1.rdPerTurnAround::samples         5652                       # Reads before turning the bus around for writes
system.mem_ctrls1.rdPerTurnAround::mean     29.116596                       # Reads before turning the bus around for writes
system.mem_ctrls1.rdPerTurnAround::stdev   347.694517                       # Reads before turning the bus around for writes
system.mem_ctrls1.rdPerTurnAround::0-1023         5651     99.98%     99.98% # Reads before turning the bus around for writes
system.mem_ctrls1.rdPerTurnAround::25600-26623            1      0.02%    100.00% # Reads before turning the bus around for writes
system.mem_ctrls1.rdPerTurnAround::total         5652                       # Reads before turning the bus around for writes
system.mem_ctrls1.wrPerTurnAround::samples         5652                       # Writes before turning the bus around for reads
system.mem_ctrls1.wrPerTurnAround::mean     17.694091                       # Writes before turning the bus around for reads
system.mem_ctrls1.wrPerTurnAround::gmean    17.669628                       # Writes before turning the bus around for reads
system.mem_ctrls1.wrPerTurnAround::stdev     0.919526                       # Writes before turning the bus around for reads
system.mem_ctrls1.wrPerTurnAround::16            1110     19.64%     19.64% # Writes before turning the bus around for reads
system.mem_ctrls1.wrPerTurnAround::17              38      0.67%     20.31% # Writes before turning the bus around for reads
system.mem_ctrls1.wrPerTurnAround::18            4069     71.99%     92.30% # Writes before turning the bus around for reads
system.mem_ctrls1.wrPerTurnAround::19             370      6.55%     98.85% # Writes before turning the bus around for reads
system.mem_ctrls1.wrPerTurnAround::20              50      0.88%     99.73% # Writes before turning the bus around for reads
system.mem_ctrls1.wrPerTurnAround::21               9      0.16%     99.89% # Writes before turning the bus around for reads
system.mem_ctrls1.wrPerTurnAround::22               2      0.04%     99.93% # Writes before turning the bus around for reads
system.mem_ctrls1.wrPerTurnAround::23               1      0.02%     99.95% # Writes before turning the bus around for reads
system.mem_ctrls1.wrPerTurnAround::24               2      0.04%     99.98% # Writes before turning the bus around for reads
system.mem_ctrls1.wrPerTurnAround::25               1      0.02%    100.00% # Writes before turning the bus around for reads
system.mem_ctrls1.wrPerTurnAround::total         5652                       # Writes before turning the bus around for reads
system.mem_ctrls1.totQLat                 29209296551                       # Total ticks spent queuing
system.mem_ctrls1.totMemAccLat            32295152801                       # Total ticks spent from burst creation until serviced by the DRAM
system.mem_ctrls1.totBusLat                 822895000                       # Total ticks spent in databus transfers
system.mem_ctrls1.avgQLat                   177478.88                       # Average queueing delay per DRAM burst
system.mem_ctrls1.avgBusLat                   5000.00                       # Average bus latency per DRAM burst
system.mem_ctrls1.avgMemAccLat              196228.88                       # Average memory access latency per DRAM burst
system.mem_ctrls1.avgRdBW                        8.83                       # Average DRAM read bandwidth in MiByte/s
system.mem_ctrls1.avgWrBW                        5.36                       # Average achieved write bandwidth in MiByte/s
system.mem_ctrls1.avgRdBWSys                     8.83                       # Average system read bandwidth in MiByte/s
system.mem_ctrls1.avgWrBWSys                     5.37                       # Average system write bandwidth in MiByte/s
system.mem_ctrls1.peakBW                     12800.00                       # Theoretical peak bandwidth in MiByte/s
system.mem_ctrls1.busUtil                        0.11                       # Data bus utilization in percentage
system.mem_ctrls1.busUtilRead                    0.07                       # Data bus utilization in percentage for reads
system.mem_ctrls1.busUtilWrite                   0.04                       # Data bus utilization in percentage for writes
system.mem_ctrls1.avgRdQLen                      1.01                       # Average read queue length when enqueuing
system.mem_ctrls1.avgWrQLen                     21.07                       # Average write queue length when enqueuing
system.mem_ctrls1.readRowHits                   22631                       # Number of row buffer hits during reads
system.mem_ctrls1.writeRowHits                  10431                       # Number of row buffer hits during writes
system.mem_ctrls1.readRowHitRate                13.75                       # Row buffer hit rate for reads
system.mem_ctrls1.writeRowHitRate               10.43                       # Row buffer hit rate for writes
system.mem_ctrls1.avgGap                   4508344.85                       # Average gap between requests
system.mem_ctrls1.pageHitRate                   12.49                       # Row buffer hit rate, read and write combined
system.mem_ctrls1_0.actEnergy               828911160                       # Energy for activate commands per rank (pJ)
system.mem_ctrls1_0.preEnergy               440576730                       # Energy for precharge commands per rank (pJ)
system.mem_ctrls1_0.readEnergy              591556140                       # Energy for read commands per rank (pJ)
system.mem_ctrls1_0.writeEnergy             260739000                       # Energy for write commands per rank (pJ)
system.mem_ctrls1_0.refreshEnergy        61533454320.000015                       # Energy for refresh commands per rank (pJ)
system.mem_ctrls1_0.actBackEnergy         21589618680                       # Energy for active background per rank (pJ)
system.mem_ctrls1_0.preBackEnergy          3572581440                       # Energy for precharge background per rank (pJ)
system.mem_ctrls1_0.actPowerDownEnergy   123045641220                       # Energy for active power-down per rank (pJ)
system.mem_ctrls1_0.prePowerDownEnergy   101942833440                       # Energy for precharge power-down per rank (pJ)
system.mem_ctrls1_0.selfRefreshEnergy    158603053605                       # Energy for self refresh per rank (pJ)
system.mem_ctrls1_0.totalEnergy          472435267965                       # Total energy per rank (pJ)
system.mem_ctrls1_0.averagePower           395.920788                       # Core power per rank (mW)
system.mem_ctrls1_0.totalIdleTime        1136508973918                       # Total Idle time Per DRAM Rank
system.mem_ctrls1_0.memoryStateTime::IDLE   7128330991                       # Time in different power states
system.mem_ctrls1_0.memoryStateTime::REF  26187564000                       # Time in different power states
system.mem_ctrls1_0.memoryStateTime::SREF 601236137347                       # Time in different power states
system.mem_ctrls1_0.memoryStateTime::PRE_PDN 265476146429                       # Time in different power states
system.mem_ctrls1_0.memoryStateTime::ACT  23391853915                       # Time in different power states
system.mem_ctrls1_0.memoryStateTime::ACT_PDN 269837002165                       # Time in different power states
system.mem_ctrls1_1.actEnergy               824170200                       # Energy for activate commands per rank (pJ)
system.mem_ctrls1_1.preEnergy               438056850                       # Energy for precharge commands per rank (pJ)
system.mem_ctrls1_1.readEnergy              583537920                       # Energy for read commands per rank (pJ)
system.mem_ctrls1_1.writeEnergy             261297540                       # Energy for write commands per rank (pJ)
system.mem_ctrls1_1.refreshEnergy        61399462800.000015                       # Energy for refresh commands per rank (pJ)
system.mem_ctrls1_1.actBackEnergy         21434406540                       # Energy for active background per rank (pJ)
system.mem_ctrls1_1.preBackEnergy          3572237760                       # Energy for precharge background per rank (pJ)
system.mem_ctrls1_1.actPowerDownEnergy   121972598550                       # Energy for active power-down per rank (pJ)
system.mem_ctrls1_1.prePowerDownEnergy   102158694720                       # Energy for precharge power-down per rank (pJ)
system.mem_ctrls1_1.selfRefreshEnergy    159148759800                       # Energy for self refresh per rank (pJ)
system.mem_ctrls1_1.totalEnergy          471822742260                       # Total energy per rank (pJ)
system.mem_ctrls1_1.averagePower           395.407465                       # Core power per rank (mW)
system.mem_ctrls1_1.totalIdleTime        1136870736994                       # Total Idle time Per DRAM Rank
system.mem_ctrls1_1.memoryStateTime::IDLE   7139786329                       # Time in different power states
system.mem_ctrls1_1.memoryStateTime::REF  26130830000                       # Time in different power states
system.mem_ctrls1_1.memoryStateTime::SREF 603361304597                       # Time in different power states
system.mem_ctrls1_1.memoryStateTime::PRE_PDN 266038535607                       # Time in different power states
system.mem_ctrls1_1.memoryStateTime::ACT  23103022487                       # Time in different power states
system.mem_ctrls1_1.memoryStateTime::ACT_PDN 267483555827                       # Time in different power states
system.pwrStateResidencyTicks::UNDEFINED 18846598425777                       # Cumulative time (in ticks) in various power states
system.cpu.branchPred.lookups                       3                       # Number of BP lookups
system.cpu.branchPred.condPredicted                 1                       # Number of conditional branches predicted
system.cpu.branchPred.condIncorrect                 1                       # Number of conditional branches incorrect
system.cpu.branchPred.BTBLookups                    2                       # Number of BTB lookups
system.cpu.branchPred.BTBHits                       0                       # Number of BTB hits
system.cpu.branchPred.BTBCorrect                    0                       # Number of correct BTB predictions (this stat may not work properly.
system.cpu.branchPred.BTBHitPct              0.000000                       # BTB Hit Percentage
system.cpu.branchPred.usedRAS                       0                       # Number of times the RAS was used to get a target.
system.cpu.branchPred.RASInCorrect                  0                       # Number of incorrect RAS predictions.
system.cpu.branchPred.indirectLookups               0                       # Number of indirect predictor lookups.
system.cpu.branchPred.indirectHits                  0                       # Number of indirect target hits.
system.cpu.branchPred.indirectMisses                0                       # Number of indirect misses.
system.cpu.branchPredindirectMispredicted            0                       # Number of mispredicted indirect branches.
system.cpu_voltage_domain.voltage                   1                       # Voltage in Volts
system.cpu_clk_domain.clock                       333                       # Clock period in ticks
system.cpu.dtb.fetch_hits                           0                       # ITB hits
system.cpu.dtb.fetch_misses                         0                       # ITB misses
system.cpu.dtb.fetch_acv                            0                       # ITB acv
system.cpu.dtb.fetch_accesses                       0                       # ITB accesses
system.cpu.dtb.read_hits                            3                       # DTB read hits
system.cpu.dtb.read_misses                          0                       # DTB read misses
system.cpu.dtb.read_acv                             0                       # DTB read access violations
system.cpu.dtb.read_accesses                        3                       # DTB read accesses
system.cpu.dtb.write_hits                          11                       # DTB write hits
system.cpu.dtb.write_misses                         0                       # DTB write misses
system.cpu.dtb.write_acv                            0                       # DTB write access violations
system.cpu.dtb.write_accesses                      11                       # DTB write accesses
system.cpu.dtb.data_hits                           14                       # DTB hits
system.cpu.dtb.data_misses                          0                       # DTB misses
system.cpu.dtb.data_acv                             0                       # DTB access violations
system.cpu.dtb.data_accesses                       14                       # DTB accesses
system.cpu.itb.fetch_hits                           6                       # ITB hits
system.cpu.itb.fetch_misses                         0                       # ITB misses
system.cpu.itb.fetch_acv                            0                       # ITB acv
system.cpu.itb.fetch_accesses                       6                       # ITB accesses
system.cpu.itb.read_hits                            0                       # DTB read hits
system.cpu.itb.read_misses                          0                       # DTB read misses
system.cpu.itb.read_acv                             0                       # DTB read access violations
system.cpu.itb.read_accesses                        0                       # DTB read accesses
system.cpu.itb.write_hits                           0                       # DTB write hits
system.cpu.itb.write_misses                         0                       # DTB write misses
system.cpu.itb.write_acv                            0                       # DTB write access violations
system.cpu.itb.write_accesses                       0                       # DTB write accesses
system.cpu.itb.data_hits                            0                       # DTB hits
system.cpu.itb.data_misses                          0                       # DTB misses
system.cpu.itb.data_acv                             0                       # DTB access violations
system.cpu.itb.data_accesses                        0                       # DTB accesses
system.cpu.workload.num_syscalls                    0                       # Number of system calls
system.cpu.pwrStateResidencyTicks::ON    1193257034847                       # Cumulative time (in ticks) in various power states
system.cpu.numCycles                             1079                       # number of cpu cycles simulated
system.cpu.numWorkItemsStarted                      0                       # number of work items this cpu started
system.cpu.numWorkItemsCompleted                    0                       # number of work items this cpu completed
system.cpu.fetch.icacheStallCycles                 63                       # Number of cycles fetch is stalled on an Icache miss
system.cpu.fetch.Insts                             31                       # Number of instructions fetch has processed
system.cpu.fetch.Branches                           3                       # Number of branches that fetch encountered
system.cpu.fetch.Cycles                             5                       # Number of cycles fetch has run and was not squashing or blocked
system.cpu.fetch.SquashCycles                       5                       # Number of cycles fetch has spent squashing
system.cpu.fetch.PendingDrainCycles                 8                       # Number of cycles fetch has spent waiting on pipes to drain
system.cpu.fetch.CacheLines                         6                       # Number of cache lines fetched
system.cpu.fetch.IcacheSquashes                     3                       # Number of outstanding Icache misses that were squashed
system.cpu.fetch.rateDist::samples                 78                       # Number of instructions fetched each cycle (Total)
system.cpu.fetch.rateDist::mean              0.397436                       # Number of instructions fetched each cycle (Total)
system.cpu.fetch.rateDist::stdev             1.646245                       # Number of instructions fetched each cycle (Total)
system.cpu.fetch.rateDist::underflows               0      0.00%      0.00% # Number of instructions fetched each cycle (Total)
system.cpu.fetch.rateDist::0                       73     93.59%     93.59% # Number of instructions fetched each cycle (Total)
system.cpu.fetch.rateDist::1                        0      0.00%     93.59% # Number of instructions fetched each cycle (Total)
system.cpu.fetch.rateDist::2                        1      1.28%     94.87% # Number of instructions fetched each cycle (Total)
system.cpu.fetch.rateDist::3                        0      0.00%     94.87% # Number of instructions fetched each cycle (Total)
system.cpu.fetch.rateDist::4                        0      0.00%     94.87% # Number of instructions fetched each cycle (Total)
system.cpu.fetch.rateDist::5                        1      1.28%     96.15% # Number of instructions fetched each cycle (Total)
system.cpu.fetch.rateDist::6                        0      0.00%     96.15% # Number of instructions fetched each cycle (Total)
[...]
system.switch_cpus_1.iq.int_inst_queue_writes    862945069                       # Number of integer instruction queue writes
system.switch_cpus_1.iq.int_inst_queue_wakeup_accesses    593071682                       # Number of integer instruction queue wakeup accesses
system.switch_cpus_1.iq.fp_inst_queue_reads     26236072                       # Number of floating instruction queue reads
system.switch_cpus_1.iq.fp_inst_queue_writes     18780042                       # Number of floating instruction queue writes
system.switch_cpus_1.iq.fp_inst_queue_wakeup_accesses     12812776                       # Number of floating instruction queue wakeup accesses
system.switch_cpus_1.iq.int_alu_accesses    635562964                       # Number of integer alu accesses
system.switch_cpus_1.iq.fp_alu_accesses      13181232                       # Number of floating point alu accesses
system.switch_cpus_1.iew.lsq.thread0.forwLoads      6267615                       # Number of loads that had data forwarded from stores
system.switch_cpus_1.iew.lsq.thread0.invAddrLoads            0                       # Number of loads ignored due to an invalid address
system.switch_cpus_1.iew.lsq.thread0.squashedLoads     43627750                       # Number of loads squashed
system.switch_cpus_1.iew.lsq.thread0.ignoredResponses        81074                       # Number of memory responses ignored because the instruction is squashed
system.switch_cpus_1.iew.lsq.thread0.memOrderViolation        75912                       # Number of memory ordering violations
system.switch_cpus_1.iew.lsq.thread0.squashedStores     12539985                       # Number of stores squashed
system.switch_cpus_1.iew.lsq.thread0.invAddrSwpfs            0                       # Number of software prefetches ignored due to an invalid address
system.switch_cpus_1.iew.lsq.thread0.blockedLoads            0                       # Number of blocked loads due to partial load-store forwarding
system.switch_cpus_1.iew.lsq.thread0.rescheduledLoads        51042                       # Number of loads that were rescheduled
system.switch_cpus_1.iew.lsq.thread0.cacheBlocked      5405616                       # Number of times an access to memory failed due to the cache being blocked
system.switch_cpus_1.iew.iewIdleCycles              0                       # Number of cycles IEW is idle
system.switch_cpus_1.iew.iewSquashCycles      8520867                       # Number of cycles IEW is squashing
system.switch_cpus_1.iew.iewBlockCycles      35302450                       # Number of cycles IEW is blocking
system.switch_cpus_1.iew.iewUnblockCycles      5703675                       # Number of cycles IEW is unblocking
system.switch_cpus_1.iew.iewDispatchedInsts    707433258                       # Number of instructions dispatched to IQ
system.switch_cpus_1.iew.iewDispSquashedInsts      2980807                       # Number of squashed instructions skipped by dispatch
system.switch_cpus_1.iew.iewDispLoadInsts    150756019                       # Number of dispatched load instructions
system.switch_cpus_1.iew.iewDispStoreInsts     60957665                       # Number of dispatched store instructions
system.switch_cpus_1.iew.iewDispNonSpecInsts         1443                       # Number of dispatched non-speculative instructions
system.switch_cpus_1.iew.iewIQFullEvents        98267                       # Number of times the IQ has become full, causing a stall
system.switch_cpus_1.iew.iewLSQFullEvents      5290379                       # Number of times the LSQ has become full, causing a stall
system.switch_cpus_1.iew.memOrderViolationEvents        75912                       # Number of memory order violations
system.switch_cpus_1.iew.predictedTakenIncorrect      4872780                       # Number of branches that were predicted taken incorrectly
system.switch_cpus_1.iew.predictedNotTakenIncorrect      4590406                       # Number of branches that were predicted not taken incorrectly
system.switch_cpus_1.iew.branchMispredicts      9463186                       # Number of branch mispredicts detected at execute
system.switch_cpus_1.iew.iewExecutedInsts    621553909                       # Number of executed instructions
system.switch_cpus_1.iew.iewExecLoadInsts    141933988                       # Number of load instructions executed
system.switch_cpus_1.iew.iewExecSquashedInsts     14285434                       # Number of squashed instructions skipped in execute
system.switch_cpus_1.iew.exec_swp                   0                       # number of swp insts executed
system.switch_cpus_1.iew.exec_nop            16606054                       # number of nop insts executed
system.switch_cpus_1.iew.exec_refs          196910046                       # number of memory reference insts executed
system.switch_cpus_1.iew.exec_branches       94620324                       # Number of branches executed
system.switch_cpus_1.iew.exec_stores         54976058                       # Number of stores executed
system.switch_cpus_1.iew.exec_rate           1.481735                       # Inst execution rate
system.switch_cpus_1.iew.wb_sent            609665979                       # cumulative count of insts sent to commit
system.switch_cpus_1.iew.wb_count           605884458                       # cumulative count of insts written-back
system.switch_cpus_1.iew.wb_producers       349193344                       # num instructions producing a value
system.switch_cpus_1.iew.wb_consumers       442483400                       # num instructions consuming a value
system.switch_cpus_1.iew.wb_rate             1.444380                       # insts written-back per cycle
system.switch_cpus_1.iew.wb_fanout           0.789167                       # average fanout of values written-back
system.switch_cpus_1.commit.commitSquashedInsts    191864921                       # The number of squashed insts skipped by commit
system.switch_cpus_1.commit.commitNonSpecStalls         1564                       # The number of times commit has been forced to stall to communicate backwards
system.switch_cpus_1.commit.branchMispredicts      8308814                       # The number of times a branch was mispredicted
system.switch_cpus_1.commit.committed_per_cycle::samples    371011325                       # Number of insts commited each cycle
system.switch_cpus_1.commit.committed_per_cycle::mean     1.383037                       # Number of insts commited each cycle
system.switch_cpus_1.commit.committed_per_cycle::stdev     2.429660                       # Number of insts commited each cycle
system.switch_cpus_1.commit.committed_per_cycle::underflows            0      0.00%      0.00% # Number of insts commited each cycle
system.switch_cpus_1.commit.committed_per_cycle::0    221253770     59.64%     59.64% # Number of insts commited each cycle
system.switch_cpus_1.commit.committed_per_cycle::1     60906890     16.42%     76.05% # Number of insts commited each cycle
system.switch_cpus_1.commit.committed_per_cycle::2     20303642      5.47%     81.52% # Number of insts commited each cycle
system.switch_cpus_1.commit.committed_per_cycle::3     13775613      3.71%     85.24% # Number of insts commited each cycle
system.switch_cpus_1.commit.committed_per_cycle::4      7743944      2.09%     87.32% # Number of insts commited each cycle
system.switch_cpus_1.commit.committed_per_cycle::5      7010241      1.89%     89.21% # Number of insts commited each cycle
system.switch_cpus_1.commit.committed_per_cycle::6      5864027      1.58%     90.79% # Number of insts commited each cycle
system.switch_cpus_1.commit.committed_per_cycle::7      4155453      1.12%     91.91% # Number of insts commited each cycle
system.switch_cpus_1.commit.committed_per_cycle::8     29997745      8.09%    100.00% # Number of insts commited each cycle
system.switch_cpus_1.commit.committed_per_cycle::overflows            0      0.00%    100.00% # Number of insts commited each cycle
system.switch_cpus_1.commit.committed_per_cycle::min_value            0                       # Number of insts commited each cycle
system.switch_cpus_1.commit.committed_per_cycle::max_value            8                       # Number of insts commited each cycle
system.switch_cpus_1.commit.committed_per_cycle::total    371011325                       # Number of insts commited each cycle
system.switch_cpus_1.commit.committedInsts    513122287                       # Number of instructions committed
system.switch_cpus_1.commit.committedOps    513122287                       # Number of ops (including micro ops) committed
system.switch_cpus_1.commit.swp_count               0                       # Number of s/w prefetches committed
system.switch_cpus_1.commit.refs            155545944                       # Number of memory references committed
system.switch_cpus_1.commit.loads           107128264                       # Number of loads committed
system.switch_cpus_1.commit.membars               782                       # Number of memory barriers committed
system.switch_cpus_1.commit.branches         79583286                       # Number of branches committed
system.switch_cpus_1.commit.fp_insts         11632020                       # Number of committed floating point instructions.
system.switch_cpus_1.commit.int_insts       487558660                       # Number of committed integer instructions.
system.switch_cpus_1.commit.function_calls      3555386                       # Number of function calls committed.
system.switch_cpus_1.commit.op_class_0::No_OpClass     13292047      2.59%      2.59% # Class of committed instruction
system.switch_cpus_1.commit.op_class_0::IntAlu    334471933     65.18%     67.77% # Class of committed instruction
system.switch_cpus_1.commit.op_class_0::IntMult       177052      0.03%     67.81% # Class of committed instruction
system.switch_cpus_1.commit.op_class_0::IntDiv            0      0.00%     67.81% # Class of committed instruction
system.switch_cpus_1.commit.op_class_0::FloatAdd      4435607      0.86%     68.67% # Class of committed instruction
system.switch_cpus_1.commit.op_class_0::FloatCmp      3623622      0.71%     69.38% # Class of committed instruction
system.switch_cpus_1.commit.op_class_0::FloatCvt      1489216      0.29%     69.67% # Class of committed instruction
system.switch_cpus_1.commit.op_class_0::FloatMult            0      0.00%     69.67% # Class of committed instruction
system.switch_cpus_1.commit.op_class_0::FloatMultAcc            0      0.00%     69.67% # Class of committed instruction
system.switch_cpus_1.commit.op_class_0::FloatDiv        86084      0.02%     69.69% # Class of committed instruction
system.switch_cpus_1.commit.op_class_0::FloatMisc            0      0.00%     69.69% # Class of committed instruction
system.switch_cpus_1.commit.op_class_0::FloatSqrt            0      0.00%     69.69% # Class of committed instruction
system.switch_cpus_1.commit.op_class_0::SimdAdd            0      0.00%     69.69% # Class of committed instruction
system.switch_cpus_1.commit.op_class_0::SimdAddAcc            0      0.00%     69.69% # Class of committed instruction
system.switch_cpus_1.commit.op_class_0::SimdAlu            0      0.00%     69.69% # Class of committed instruction
system.switch_cpus_1.commit.op_class_0::SimdCmp            0      0.00%     69.69% # Class of committed instruction
system.switch_cpus_1.commit.op_class_0::SimdCvt            0      0.00%     69.69% # Class of committed instruction
system.switch_cpus_1.commit.op_class_0::SimdMisc            0      0.00%     69.69% # Class of committed instruction
system.switch_cpus_1.commit.op_class_0::SimdMult            0      0.00%     69.69% # Class of committed instruction
system.switch_cpus_1.commit.op_class_0::SimdMultAcc            0      0.00%     69.69% # Class of committed instruction
system.switch_cpus_1.commit.op_class_0::SimdShift            0      0.00%     69.69% # Class of committed instruction
system.switch_cpus_1.commit.op_class_0::SimdShiftAcc            0      0.00%     69.69% # Class of committed instruction
system.switch_cpus_1.commit.op_class_0::SimdSqrt            0      0.00%     69.69% # Class of committed instruction
system.switch_cpus_1.commit.op_class_0::SimdFloatAdd            0      0.00%     69.69% # Class of committed instruction
system.switch_cpus_1.commit.op_class_0::SimdFloatAlu            0      0.00%     69.69% # Class of committed instruction
system.switch_cpus_1.commit.op_class_0::SimdFloatCmp            0      0.00%     69.69% # Class of committed instruction
system.switch_cpus_1.commit.op_class_0::SimdFloatCvt            0      0.00%     69.69% # Class of committed instruction
system.switch_cpus_1.commit.op_class_0::SimdFloatDiv            0      0.00%     69.69% # Class of committed instruction
system.switch_cpus_1.commit.op_class_0::SimdFloatMisc            0      0.00%     69.69% # Class of committed instruction
system.switch_cpus_1.commit.op_class_0::SimdFloatMult            0      0.00%     69.69% # Class of committed instruction
system.switch_cpus_1.commit.op_class_0::SimdFloatMultAcc            0      0.00%     69.69% # Class of committed instruction
system.switch_cpus_1.commit.op_class_0::SimdFloatSqrt            0      0.00%     69.69% # Class of committed instruction
system.switch_cpus_1.commit.op_class_0::MemRead    105516381     20.56%     90.25% # Class of committed instruction
system.switch_cpus_1.commit.op_class_0::MemWrite     48032854      9.36%     99.61% # Class of committed instruction
system.switch_cpus_1.commit.op_class_0::FloatMemRead      1612665      0.31%     99.93% # Class of committed instruction
system.switch_cpus_1.commit.op_class_0::FloatMemWrite       384826      0.07%    100.00% # Class of committed instruction
system.switch_cpus_1.commit.op_class_0::IprAccess            0      0.00%    100.00% # Class of committed instruction
system.switch_cpus_1.commit.op_class_0::InstPrefetch            0      0.00%    100.00% # Class of committed instruction
system.switch_cpus_1.commit.op_class_0::total    513122287                       # Class of committed instruction
system.switch_cpus_1.commit.bw_lim_events     29997745                       # number cycles where commit BW limit reached
system.switch_cpus_1.rob.rob_reads         1043954848                       # The number of ROB reads
system.switch_cpus_1.rob.rob_writes        1439191101                       # The number of ROB writes
system.switch_cpus_1.timesIdled               2061213                       # Number of times that the entire CPU went into an idle state and unscheduled itself
system.switch_cpus_1.idleCycles              19424292                       # Total number of cycles that the CPU has spent unscheduled due to idling
system.switch_cpus_1.committedInsts         500000000                       # Number of Instructions Simulated
system.switch_cpus_1.committedOps           500000000                       # Number of Ops (including micro ops) Simulated
system.switch_cpus_1.cpi                     0.838954                       # CPI: Cycles Per Instruction
system.switch_cpus_1.cpi_total               0.838954                       # CPI: Total CPI of All Threads
system.switch_cpus_1.ipc                     1.191960                       # IPC: Instructions Per Cycle
system.switch_cpus_1.ipc_total               1.191960                       # IPC: Total IPC of All Threads
system.switch_cpus_1.int_regfile_reads      824121528                       # number of integer regfile reads
system.switch_cpus_1.int_regfile_writes     454892634                       # number of integer regfile writes
system.switch_cpus_1.fp_regfile_reads        16583432                       # number of floating regfile reads
system.switch_cpus_1.fp_regfile_writes        8274516                       # number of floating regfile writes
system.switch_cpus_1.misc_regfile_reads        171544                       # number of misc regfile reads
system.switch_cpus_1.misc_regfile_writes        86444                       # number of misc regfile writes
system.tol3bus.snoop_filter.tot_requests      4708118                       # Total number of requests made to the snoop filter.
system.tol3bus.snoop_filter.hit_single_requests      2352063                       # Number of requests hitting in the snoop filter with a single holder of the requested data.
system.tol3bus.snoop_filter.hit_multi_requests            0                       # Number of requests hitting in the snoop filter with multiple (>1) holders of the requested data.
system.tol3bus.snoop_filter.tot_snoops           1337                       # Total number of snoops made to the snoop filter.
system.tol3bus.snoop_filter.hit_single_snoops         1337                       # Number of snoops hitting in the snoop filter with a single holder of the requested data.
system.tol3bus.snoop_filter.hit_multi_snoops            0                       # Number of snoops hitting in the snoop filter with multiple (>1) holders of the requested data.
system.tol3bus.pwrStateResidencyTicks::UNDEFINED 18846598425777                       # Cumulative time (in ticks) in various power states
system.tol3bus.trans_dist::ReadResp           1655460                       # Transaction distribution
system.tol3bus.trans_dist::WritebackDirty      1467064                       # Transaction distribution
system.tol3bus.trans_dist::CleanEvict         1148213                       # Transaction distribution
system.tol3bus.trans_dist::ReadExReq           700595                       # Transaction distribution
system.tol3bus.trans_dist::ReadExResp          700595                       # Transaction distribution
system.tol3bus.trans_dist::ReadSharedReq      1655460                       # Transaction distribution
system.tol3bus.pkt_count_system.cpu.l2.mem_side::system.l3.cpu_side      7064173                       # Packet count per connected master and slave (bytes)
system.tol3bus.pkt_size_system.cpu.l2.mem_side::system.l3.cpu_side    231903104                       # Cumulative packet size per connected master and slave (bytes)
system.tol3bus.snoops                          263214                       # Total snoops (count)
system.tol3bus.snoopTraffic                  12776512                       # Total snoop traffic (bytes)
system.tol3bus.snoop_fanout::samples          2619269                       # Request fanout histogram
system.tol3bus.snoop_fanout::mean            0.000510                       # Request fanout histogram
system.tol3bus.snoop_fanout::stdev           0.022587                       # Request fanout histogram
system.tol3bus.snoop_fanout::underflows             0      0.00%      0.00% # Request fanout histogram
system.tol3bus.snoop_fanout::0                2617932     99.95%     99.95% # Request fanout histogram
system.tol3bus.snoop_fanout::1                   1337      0.05%    100.00% # Request fanout histogram
system.tol3bus.snoop_fanout::overflows              0      0.00%    100.00% # Request fanout histogram
system.tol3bus.snoop_fanout::min_value              0                       # Request fanout histogram
system.tol3bus.snoop_fanout::max_value              1                       # Request fanout histogram
system.tol3bus.snoop_fanout::total            2619269                       # Request fanout histogram
system.tol3bus.reqLayer0.occupancy         1989857817                       # Layer occupancy (ticks)
system.tol3bus.reqLayer0.utilization              0.2                       # Layer utilization (%)
system.tol3bus.respLayer0.occupancy        1569132630                       # Layer occupancy (ticks)
system.tol3bus.respLayer0.utilization             0.1                       # Layer utilization (%)

---------- End Simulation Statistics   ----------
