
---------- Begin Simulation Statistics ----------
sim_seconds                                 18.266630                       # Number of seconds simulated
sim_ticks                                18266629662999                       # Number of ticks simulated
final_tick                               180348812825499                       # Number of ticks from beginning of simulation (restored from checkpoints and never reset)
sim_freq                                 1000000000000                       # Frequency of simulated ticks
host_inst_rate                                  37247                       # Simulator instruction rate (inst/s)
host_op_rate                                    37247                       # Simulator op (including micro ops) rate (op/s)
host_tick_rate                              566974551                       # Simulator tick rate (ticks/s)
host_mem_usage                                2689576                       # Number of bytes of host memory used
host_seconds                                 32217.72                       # Real time elapsed on the host
sim_insts                                  1200000012                       # Number of instructions simulated
sim_ops                                    1200000012                       # Number of ops (including micro ops) simulated
system.voltage_domain.voltage                       1                       # Voltage in Volts
system.clk_domain.clock                          1000                       # Clock period in ticks
system.mem_ctrls0.pwrStateResidencyTicks::UNDEFINED 180348812825499                       # Cumulative time (in ticks) in various power states
system.mem_ctrls0.bytes_read::cpu.inst            128                       # Number of bytes read from this memory
system.mem_ctrls0.bytes_read::switch_cpus.inst         1472                       # Number of bytes read from this memory
system.mem_ctrls0.bytes_read::switch_cpus.data   1940279104                       # Number of bytes read from this memory
system.mem_ctrls0.bytes_read::switch_cpus_1.inst          128                       # Number of bytes read from this memory
system.mem_ctrls0.bytes_read::switch_cpus_1.data    387795648                       # Number of bytes read from this memory
system.mem_ctrls0.bytes_read::total        2328076480                       # Number of bytes read from this memory
system.mem_ctrls0.bytes_inst_read::cpu.inst          128                       # Number of instructions bytes read from this memory
system.mem_ctrls0.bytes_inst_read::switch_cpus.inst         1472                       # Number of instructions bytes read from this memory
system.mem_ctrls0.bytes_inst_read::switch_cpus_1.inst          128                       # Number of instructions bytes read from this memory
system.mem_ctrls0.bytes_inst_read::total         1728                       # Number of instructions bytes read from this memory
system.mem_ctrls0.bytes_written::writebacks      3788544                       # Number of bytes written to this memory
system.mem_ctrls0.bytes_written::total        3788544                       # Number of bytes written to this memory
system.mem_ctrls0.num_reads::cpu.inst               2                       # Number of read requests responded to by this memory
system.mem_ctrls0.num_reads::switch_cpus.inst           23                       # Number of read requests responded to by this memory
system.mem_ctrls0.num_reads::switch_cpus.data     30316861                       # Number of read requests responded to by this memory
system.mem_ctrls0.num_reads::switch_cpus_1.inst            2                       # Number of read requests responded to by this memory
system.mem_ctrls0.num_reads::switch_cpus_1.data      6059307                       # Number of read requests responded to by this memory
system.mem_ctrls0.num_reads::total           36376195                       # Number of read requests responded to by this memory
system.mem_ctrls0.num_writes::writebacks        59196                       # Number of write requests responded to by this memory
system.mem_ctrls0.num_writes::total             59196                       # Number of write requests responded to by this memory
system.mem_ctrls0.bw_read::cpu.inst                 7                       # Total read bandwidth from this memory (bytes/s)
system.mem_ctrls0.bw_read::switch_cpus.inst           81                       # Total read bandwidth from this memory (bytes/s)
system.mem_ctrls0.bw_read::switch_cpus.data    106219874                       # Total read bandwidth from this memory (bytes/s)
system.mem_ctrls0.bw_read::switch_cpus_1.inst            7                       # Total read bandwidth from this memory (bytes/s)
system.mem_ctrls0.bw_read::switch_cpus_1.data     21229732                       # Total read bandwidth from this memory (bytes/s)
system.mem_ctrls0.bw_read::total            127449701                       # Total read bandwidth from this memory (bytes/s)
system.mem_ctrls0.bw_inst_read::cpu.inst            7                       # Instruction read bandwidth from this memory (bytes/s)
system.mem_ctrls0.bw_inst_read::switch_cpus.inst           81                       # Instruction read bandwidth from this memory (bytes/s)
system.mem_ctrls0.bw_inst_read::switch_cpus_1.inst            7                       # Instruction read bandwidth from this memory (bytes/s)
system.mem_ctrls0.bw_inst_read::total              95                       # Instruction read bandwidth from this memory (bytes/s)
system.mem_ctrls0.bw_write::writebacks         207402                       # Write bandwidth from this memory (bytes/s)
system.mem_ctrls0.bw_write::total              207402                       # Write bandwidth from this memory (bytes/s)
system.mem_ctrls0.bw_total::writebacks         207402                       # Total bandwidth to/from this memory (bytes/s)
system.mem_ctrls0.bw_total::cpu.inst                7                       # Total bandwidth to/from this memory (bytes/s)
system.mem_ctrls0.bw_total::switch_cpus.inst           81                       # Total bandwidth to/from this memory (bytes/s)
system.mem_ctrls0.bw_total::switch_cpus.data    106219874                       # Total bandwidth to/from this memory (bytes/s)
system.mem_ctrls0.bw_total::switch_cpus_1.inst            7                       # Total bandwidth to/from this memory (bytes/s)
system.mem_ctrls0.bw_total::switch_cpus_1.data     21229732                       # Total bandwidth to/from this memory (bytes/s)
system.mem_ctrls0.bw_total::total           127657103                       # Total bandwidth to/from this memory (bytes/s)
system.mem_ctrls0.readReqs                   36376195                       # Number of read requests accepted
system.mem_ctrls0.writeReqs                     59196                       # Number of write requests accepted
system.mem_ctrls0.readBursts                 36376195                       # Number of DRAM read bursts, including those serviced by the write queue
system.mem_ctrls0.writeBursts                   59196                       # Number of DRAM write bursts, including those merged in the write queue
system.mem_ctrls0.bytesReadDRAM            2327806656                       # Total number of bytes read from DRAM
system.mem_ctrls0.bytesReadWrQ                 269824                       # Total number of bytes read from write queue
system.mem_ctrls0.bytesWritten                3771968                       # Total number of bytes written to DRAM
system.mem_ctrls0.bytesReadSys             2328076480                       # Total read bytes from the system interface side
system.mem_ctrls0.bytesWrittenSys             3788544                       # Total written bytes from the system interface side
system.mem_ctrls0.servicedByWrQ                  4216                       # Number of DRAM read bursts serviced by the write queue
system.mem_ctrls0.mergedWrBursts                  244                       # Number of DRAM write bursts merged with an existing one
system.mem_ctrls0.neitherReadNorWriteReqs            0                       # Number of requests that are neither read nor write
system.mem_ctrls0.perBankRdBursts::0          2264340                       # Per bank write bursts
system.mem_ctrls0.perBankRdBursts::1          2272080                       # Per bank write bursts
system.mem_ctrls0.perBankRdBursts::2          2283989                       # Per bank write bursts
system.mem_ctrls0.perBankRdBursts::3          2282740                       # Per bank write bursts
system.mem_ctrls0.perBankRdBursts::4          2279887                       # Per bank write bursts
system.mem_ctrls0.perBankRdBursts::5          2274274                       # Per bank write bursts
system.mem_ctrls0.perBankRdBursts::6          2278879                       # Per bank write bursts
system.mem_ctrls0.perBankRdBursts::7          2269044                       # Per bank write bursts
system.mem_ctrls0.perBankRdBursts::8          2280611                       # Per bank write bursts
system.mem_ctrls0.perBankRdBursts::9          2271120                       # Per bank write bursts
system.mem_ctrls0.perBankRdBursts::10         2275427                       # Per bank write bursts
system.mem_ctrls0.perBankRdBursts::11         2282534                       # Per bank write bursts
system.mem_ctrls0.perBankRdBursts::12         2268110                       # Per bank write bursts
system.mem_ctrls0.perBankRdBursts::13         2266822                       # Per bank write bursts
system.mem_ctrls0.perBankRdBursts::14         2270718                       # Per bank write bursts
system.mem_ctrls0.perBankRdBursts::15         2251404                       # Per bank write bursts
system.mem_ctrls0.perBankWrBursts::0             3448                       # Per bank write bursts
system.mem_ctrls0.perBankWrBursts::1             3486                       # Per bank write bursts
system.mem_ctrls0.perBankWrBursts::2             3413                       # Per bank write bursts
system.mem_ctrls0.perBankWrBursts::3             4329                       # Per bank write bursts
system.mem_ctrls0.perBankWrBursts::4             5214                       # Per bank write bursts
system.mem_ctrls0.perBankWrBursts::5             3509                       # Per bank write bursts
system.mem_ctrls0.perBankWrBursts::6             3437                       # Per bank write bursts
system.mem_ctrls0.perBankWrBursts::7             3752                       # Per bank write bursts
system.mem_ctrls0.perBankWrBursts::8             3872                       # Per bank write bursts
system.mem_ctrls0.perBankWrBursts::9             3507                       # Per bank write bursts
system.mem_ctrls0.perBankWrBursts::10            3576                       # Per bank write bursts
system.mem_ctrls0.perBankWrBursts::11            3538                       # Per bank write bursts
system.mem_ctrls0.perBankWrBursts::12            3438                       # Per bank write bursts
system.mem_ctrls0.perBankWrBursts::13            3477                       # Per bank write bursts
system.mem_ctrls0.perBankWrBursts::14            3457                       # Per bank write bursts
system.mem_ctrls0.perBankWrBursts::15            3484                       # Per bank write bursts
system.mem_ctrls0.numRdRetry                        0                       # Number of times read queue was full causing retry
system.mem_ctrls0.numWrRetry                        0                       # Number of times write queue was full causing retry
system.mem_ctrls0.totGap                 18266628580506                       # Total gap between requests
system.mem_ctrls0.readPktSize::0                    0                       # Read request sizes (log2)
system.mem_ctrls0.readPktSize::1                    0                       # Read request sizes (log2)
system.mem_ctrls0.readPktSize::2                    0                       # Read request sizes (log2)
system.mem_ctrls0.readPktSize::3                    0                       # Read request sizes (log2)
system.mem_ctrls0.readPktSize::4                    0                       # Read request sizes (log2)
system.mem_ctrls0.readPktSize::5                    0                       # Read request sizes (log2)
system.mem_ctrls0.readPktSize::6             36376195                       # Read request sizes (log2)
system.mem_ctrls0.writePktSize::0                   0                       # Write request sizes (log2)
system.mem_ctrls0.writePktSize::1                   0                       # Write request sizes (log2)
system.mem_ctrls0.writePktSize::2                   0                       # Write request sizes (log2)
system.mem_ctrls0.writePktSize::3                   0                       # Write request sizes (log2)
system.mem_ctrls0.writePktSize::4                   0                       # Write request sizes (log2)
system.mem_ctrls0.writePktSize::5                   0                       # Write request sizes (log2)
system.mem_ctrls0.writePktSize::6               59196                       # Write request sizes (log2)
system.mem_ctrls0.rdQLenPdf::0               36371020                       # What read queue length does an incoming req see
system.mem_ctrls0.rdQLenPdf::1                    925                       # What read queue length does an incoming req see
system.mem_ctrls0.rdQLenPdf::2                     34                       # What read queue length does an incoming req see
system.mem_ctrls0.rdQLenPdf::3                      0                       # What read queue length does an incoming req see
system.mem_ctrls0.rdQLenPdf::4                      0                       # What read queue length does an incoming req see
system.mem_ctrls0.rdQLenPdf::5                      0                       # What read queue length does an incoming req see
system.mem_ctrls0.rdQLenPdf::6                      0                       # What read queue length does an incoming req see
system.mem_ctrls0.rdQLenPdf::7                      0                       # What read queue length does an incoming req see
system.mem_ctrls0.rdQLenPdf::8                      0                       # What read queue length does an incoming req see
system.mem_ctrls0.rdQLenPdf::9                      0                       # What read queue length does an incoming req see
system.mem_ctrls0.rdQLenPdf::10                     0                       # What read queue length does an incoming req see
system.mem_ctrls0.rdQLenPdf::11                     0                       # What read queue length does an incoming req see
system.mem_ctrls0.rdQLenPdf::12                     0                       # What read queue length does an incoming req see
system.mem_ctrls0.rdQLenPdf::13                     0                       # What read queue length does an incoming req see
system.mem_ctrls0.rdQLenPdf::14                     0                       # What read queue length does an incoming req see
system.mem_ctrls0.rdQLenPdf::15                     0                       # What read queue length does an incoming req see
system.mem_ctrls0.rdQLenPdf::16                     0                       # What read queue length does an incoming req see
system.mem_ctrls0.rdQLenPdf::17                     0                       # What read queue length does an incoming req see
system.mem_ctrls0.rdQLenPdf::18                     0                       # What read queue length does an incoming req see
system.mem_ctrls0.rdQLenPdf::19                     0                       # What read queue length does an incoming req see
system.mem_ctrls0.rdQLenPdf::20                     0                       # What read queue length does an incoming req see
system.mem_ctrls0.rdQLenPdf::21                     0                       # What read queue length does an incoming req see
system.mem_ctrls0.rdQLenPdf::22                     0                       # What read queue length does an incoming req see
system.mem_ctrls0.rdQLenPdf::23                     0                       # What read queue length does an incoming req see
system.mem_ctrls0.rdQLenPdf::24                     0                       # What read queue length does an incoming req see
system.mem_ctrls0.rdQLenPdf::25                     0                       # What read queue length does an incoming req see
system.mem_ctrls0.rdQLenPdf::26                     0                       # What read queue length does an incoming req see
system.mem_ctrls0.rdQLenPdf::27                     0                       # What read queue length does an incoming req see
system.mem_ctrls0.rdQLenPdf::28                     0                       # What read queue length does an incoming req see
system.mem_ctrls0.rdQLenPdf::29                     0                       # What read queue length does an incoming req see
system.mem_ctrls0.rdQLenPdf::30                     0                       # What read queue length does an incoming req see
system.mem_ctrls0.rdQLenPdf::31                     0                       # What read queue length does an incoming req see
system.mem_ctrls0.wrQLenPdf::0                      2                       # What write queue length does an incoming req see
system.mem_ctrls0.wrQLenPdf::1                      2                       # What write queue length does an incoming req see
system.mem_ctrls0.wrQLenPdf::2                      2                       # What write queue length does an incoming req see
system.mem_ctrls0.wrQLenPdf::3                      2                       # What write queue length does an incoming req see
system.mem_ctrls0.wrQLenPdf::4                      2                       # What write queue length does an incoming req see
system.mem_ctrls0.wrQLenPdf::5                      2                       # What write queue length does an incoming req see
system.mem_ctrls0.wrQLenPdf::6                      2                       # What write queue length does an incoming req see
system.mem_ctrls0.wrQLenPdf::7                      2                       # What write queue length does an incoming req see
system.mem_ctrls0.wrQLenPdf::8                      2                       # What write queue length does an incoming req see
system.mem_ctrls0.wrQLenPdf::9                      2                       # What write queue length does an incoming req see
system.mem_ctrls0.wrQLenPdf::10                     2                       # What write queue length does an incoming req see
system.mem_ctrls0.wrQLenPdf::11                     2                       # What write queue length does an incoming req see
system.mem_ctrls0.wrQLenPdf::12                     2                       # What write queue length does an incoming req see
system.mem_ctrls0.wrQLenPdf::13                     2                       # What write queue length does an incoming req see
system.mem_ctrls0.wrQLenPdf::14                     2                       # What write queue length does an incoming req see
system.mem_ctrls0.wrQLenPdf::15                  3186                       # What write queue length does an incoming req see
system.mem_ctrls0.wrQLenPdf::16                  3206                       # What write queue length does an incoming req see
system.mem_ctrls0.wrQLenPdf::17                  3284                       # What write queue length does an incoming req see
system.mem_ctrls0.wrQLenPdf::18                  3283                       # What write queue length does an incoming req see
system.mem_ctrls0.wrQLenPdf::19                  3286                       # What write queue length does an incoming req see
system.mem_ctrls0.wrQLenPdf::20                  3283                       # What write queue length does an incoming req see
system.mem_ctrls0.wrQLenPdf::21                  3283                       # What write queue length does an incoming req see
system.mem_ctrls0.wrQLenPdf::22                  3288                       # What write queue length does an incoming req see
system.mem_ctrls0.wrQLenPdf::23                  3285                       # What write queue length does an incoming req see
system.mem_ctrls0.wrQLenPdf::24                  3282                       # What write queue length does an incoming req see
system.mem_ctrls0.wrQLenPdf::25                  3282                       # What write queue length does an incoming req see
system.mem_ctrls0.wrQLenPdf::26                  3282                       # What write queue length does an incoming req see
system.mem_ctrls0.wrQLenPdf::27                  3282                       # What write queue length does an incoming req see
system.mem_ctrls0.wrQLenPdf::28                  3282                       # What write queue length does an incoming req see
system.mem_ctrls0.wrQLenPdf::29                  3282                       # What write queue length does an incoming req see
system.mem_ctrls0.wrQLenPdf::30                  3282                       # What write queue length does an incoming req see
system.mem_ctrls0.wrQLenPdf::31                  3282                       # What write queue length does an incoming req see
system.mem_ctrls0.wrQLenPdf::32                  3282                       # What write queue length does an incoming req see
system.mem_ctrls0.wrQLenPdf::33                     0                       # What write queue length does an incoming req see
system.mem_ctrls0.wrQLenPdf::34                     0                       # What write queue length does an incoming req see
system.mem_ctrls0.wrQLenPdf::35                     0                       # What write queue length does an incoming req see
system.mem_ctrls0.wrQLenPdf::36                     0                       # What write queue length does an incoming req see
system.mem_ctrls0.wrQLenPdf::37                     0                       # What write queue length does an incoming req see
system.mem_ctrls0.wrQLenPdf::38                     0                       # What write queue length does an incoming req see
system.mem_ctrls0.wrQLenPdf::39                     0                       # What write queue length does an incoming req see
system.mem_ctrls0.wrQLenPdf::40                     0                       # What write queue length does an incoming req see
system.mem_ctrls0.wrQLenPdf::41                     0                       # What write queue length does an incoming req see
system.mem_ctrls0.wrQLenPdf::42                     0                       # What write queue length does an incoming req see
system.mem_ctrls0.wrQLenPdf::43                     0                       # What write queue length does an incoming req see
system.mem_ctrls0.wrQLenPdf::44                     0                       # What write queue length does an incoming req see
system.mem_ctrls0.wrQLenPdf::45                     0                       # What write queue length does an incoming req see
system.mem_ctrls0.wrQLenPdf::46                     0                       # What write queue length does an incoming req see
system.mem_ctrls0.wrQLenPdf::47                     0                       # What write queue length does an incoming req see
system.mem_ctrls0.wrQLenPdf::48                     0                       # What write queue length does an incoming req see
system.mem_ctrls0.wrQLenPdf::49                     0                       # What write queue length does an incoming req see
system.mem_ctrls0.wrQLenPdf::50                     0                       # What write queue length does an incoming req see
system.mem_ctrls0.wrQLenPdf::51                     0                       # What write queue length does an incoming req see
system.mem_ctrls0.wrQLenPdf::52                     0                       # What write queue length does an incoming req see
system.mem_ctrls0.wrQLenPdf::53                     0                       # What write queue length does an incoming req see
system.mem_ctrls0.wrQLenPdf::54                     0                       # What write queue length does an incoming req see
system.mem_ctrls0.wrQLenPdf::55                     0                       # What write queue length does an incoming req see
system.mem_ctrls0.wrQLenPdf::56                     0                       # What write queue length does an incoming req see
system.mem_ctrls0.wrQLenPdf::57                     0                       # What write queue length does an incoming req see
system.mem_ctrls0.wrQLenPdf::58                     0                       # What write queue length does an incoming req see
system.mem_ctrls0.wrQLenPdf::59                     0                       # What write queue length does an incoming req see
system.mem_ctrls0.wrQLenPdf::60                     0                       # What write queue length does an incoming req see
system.mem_ctrls0.wrQLenPdf::61                     0                       # What write queue length does an incoming req see
system.mem_ctrls0.wrQLenPdf::62                     0                       # What write queue length does an incoming req see
system.mem_ctrls0.wrQLenPdf::63                     0                       # What write queue length does an incoming req see
system.mem_ctrls0.bytesPerActivate::samples     36352192                       # Bytes accessed per row activation
system.mem_ctrls0.bytesPerActivate::mean    64.138589                       # Bytes accessed per row activation
system.mem_ctrls0.bytesPerActivate::gmean    64.081662                       # Bytes accessed per row activation
system.mem_ctrls0.bytesPerActivate::stdev     4.363997                       # Bytes accessed per row activation
system.mem_ctrls0.bytesPerActivate::0-127     36296097     99.85%     99.85% # Bytes accessed per row activation
system.mem_ctrls0.bytesPerActivate::128-255        51060      0.14%     99.99% # Bytes accessed per row activation
system.mem_ctrls0.bytesPerActivate::256-383         3923      0.01%    100.00% # Bytes accessed per row activation
system.mem_ctrls0.bytesPerActivate::384-511          779      0.00%    100.00% # Bytes accessed per row activation
system.mem_ctrls0.bytesPerActivate::512-639          179      0.00%    100.00% # Bytes accessed per row activation
system.mem_ctrls0.bytesPerActivate::640-767           71      0.00%    100.00% # Bytes accessed per row activation
system.mem_ctrls0.bytesPerActivate::768-895           35      0.00%    100.00% # Bytes accessed per row activation
system.mem_ctrls0.bytesPerActivate::896-1023           23      0.00%    100.00% # Bytes accessed per row activation
system.mem_ctrls0.bytesPerActivate::1024-1151           25      0.00%    100.00% # Bytes accessed per row activation
system.mem_ctrls0.bytesPerActivate::total     36352192                       # Bytes accessed per row activation
system.mem_ctrls0.rdPerTurnAround::samples         3283                       # Reads before turning the bus around for writes
system.mem_ctrls0.rdPerTurnAround::mean  11074.540359                       # Reads before turning the bus around for writes
system.mem_ctrls0.rdPerTurnAround::gmean   127.669221                       # Reads before turning the bus around for writes
system.mem_ctrls0.rdPerTurnAround::stdev 176305.990860                       # Reads before turning the bus around for writes
system.mem_ctrls0.rdPerTurnAround::0-262143         3259     99.27%     99.27% # Reads before turning the bus around for writes
system.mem_ctrls0.rdPerTurnAround::262144-524287           12      0.37%     99.63% # Reads before turning the bus around for writes
system.mem_ctrls0.rdPerTurnAround::524288-786431            3      0.09%     99.73% # Reads before turning the bus around for writes
system.mem_ctrls0.rdPerTurnAround::786432-1.04858e+06            2      0.06%     99.79% # Reads before turning the bus around for writes
system.mem_ctrls0.rdPerTurnAround::1.04858e+06-1.31072e+06            3      0.09%     99.88% # Reads before turning the bus around for writes
system.mem_ctrls0.rdPerTurnAround::1.57286e+06-1.83501e+06            2      0.06%     99.94% # Reads before turning the bus around for writes
system.mem_ctrls0.rdPerTurnAround::4.1943e+06-4.45645e+06            1      0.03%     99.97% # Reads before turning the bus around for writes
system.mem_ctrls0.rdPerTurnAround::8.12646e+06-8.38861e+06            1      0.03%    100.00% # Reads before turning the bus around for writes
system.mem_ctrls0.rdPerTurnAround::total         3283                       # Reads before turning the bus around for writes
system.mem_ctrls0.wrPerTurnAround::samples         3283                       # Writes before turning the bus around for reads
system.mem_ctrls0.wrPerTurnAround::mean     17.952178                       # Writes before turning the bus around for reads
system.mem_ctrls0.wrPerTurnAround::gmean    17.949003                       # Writes before turning the bus around for reads
system.mem_ctrls0.wrPerTurnAround::stdev     0.327257                       # Writes before turning the bus around for reads
system.mem_ctrls0.wrPerTurnAround::16              79      2.41%      2.41% # Writes before turning the bus around for reads
system.mem_ctrls0.wrPerTurnAround::17              18      0.55%      2.95% # Writes before turning the bus around for reads
system.mem_ctrls0.wrPerTurnAround::18            3169     96.53%     99.48% # Writes before turning the bus around for reads
system.mem_ctrls0.wrPerTurnAround::19              16      0.49%     99.97% # Writes before turning the bus around for reads
system.mem_ctrls0.wrPerTurnAround::21               1      0.03%    100.00% # Writes before turning the bus around for reads
system.mem_ctrls0.wrPerTurnAround::total         3283                       # Writes before turning the bus around for reads
system.mem_ctrls0.totQLat                1062957964554                       # Total ticks spent queuing
system.mem_ctrls0.totMemAccLat           1744932570804                       # Total ticks spent from burst creation until serviced by the DRAM
system.mem_ctrls0.totBusLat              181859895000                       # Total ticks spent in databus transfers
system.mem_ctrls0.avgQLat                    29224.64                       # Average queueing delay per DRAM burst
system.mem_ctrls0.avgBusLat                   5000.00                       # Average bus latency per DRAM burst
system.mem_ctrls0.avgMemAccLat               47974.64                       # Average memory access latency per DRAM burst
system.mem_ctrls0.avgRdBW                      127.43                       # Average DRAM read bandwidth in MiByte/s
system.mem_ctrls0.avgWrBW                        0.21                       # Average achieved write bandwidth in MiByte/s
system.mem_ctrls0.avgRdBWSys                   127.45                       # Average system read bandwidth in MiByte/s
system.mem_ctrls0.avgWrBWSys                     0.21                       # Average system write bandwidth in MiByte/s
system.mem_ctrls0.peakBW                     12800.00                       # Theoretical peak bandwidth in MiByte/s
system.mem_ctrls0.busUtil                        1.00                       # Data bus utilization in percentage
system.mem_ctrls0.busUtilRead                    1.00                       # Data bus utilization in percentage for reads
system.mem_ctrls0.busUtilWrite                   0.00                       # Data bus utilization in percentage for writes
system.mem_ctrls0.avgRdQLen                      1.00                       # Average read queue length when enqueuing
system.mem_ctrls0.avgWrQLen                     25.42                       # Average write queue length when enqueuing
system.mem_ctrls0.readRowHits                   61785                       # Number of row buffer hits during reads
system.mem_ctrls0.writeRowHits                  16934                       # Number of row buffer hits during writes
system.mem_ctrls0.readRowHitRate                 0.17                       # Row buffer hit rate for reads
system.mem_ctrls0.writeRowHitRate               28.73                       # Row buffer hit rate for writes
system.mem_ctrls0.avgGap                    501343.01                       # Average gap between requests
system.mem_ctrls0.pageHitRate                    0.22                       # Row buffer hit rate, read and write combined
system.mem_ctrls0_0.actEnergy            129914434860                       # Energy for activate commands per rank (pJ)
system.mem_ctrls0_0.preEnergy             69051144525                       # Energy for precharge commands per rank (pJ)
system.mem_ctrls0_0.readEnergy           129985363620                       # Energy for read commands per rank (pJ)
system.mem_ctrls0_0.writeEnergy             159669360                       # Energy for write commands per rank (pJ)
system.mem_ctrls0_0.refreshEnergy        1441986006240.000244                       # Energy for refresh commands per rank (pJ)
system.mem_ctrls0_0.actBackEnergy        615037184280                       # Energy for active background per rank (pJ)
system.mem_ctrls0_0.preBackEnergy         32588279040                       # Energy for precharge background per rank (pJ)
system.mem_ctrls0_0.actPowerDownEnergy   7067498715210                       # Energy for active power-down per rank (pJ)
system.mem_ctrls0_0.prePowerDownEnergy   511893276960                       # Energy for precharge power-down per rank (pJ)
system.mem_ctrls0_0.selfRefreshEnergy       362625675                       # Energy for self refresh per rank (pJ)
system.mem_ctrls0_0.totalEnergy          9998477287260                       # Total energy per rank (pJ)
system.mem_ctrls0_0.averagePower           547.363004                       # Core power per rank (mW)
system.mem_ctrls0_0.totalIdleTime        16831455098290                       # Total Idle time Per DRAM Rank
system.mem_ctrls0_0.memoryStateTime::IDLE  13968806070                       # Time in different power states
system.mem_ctrls0_0.memoryStateTime::REF 609978456000                       # Time in different power states
system.mem_ctrls0_0.memoryStateTime::SREF   1041180740                       # Time in different power states
system.mem_ctrls0_0.memoryStateTime::PRE_PDN 1332374089437                       # Time in different power states
system.mem_ctrls0_0.memoryStateTime::ACT 811226585229                       # Time in different power states
system.mem_ctrls0_0.memoryStateTime::ACT_PDN 15498040545523                       # Time in different power states
system.mem_ctrls0_1.actEnergy            129640251720                       # Energy for activate commands per rank (pJ)
system.mem_ctrls0_1.preEnergy             68905424115                       # Energy for precharge commands per rank (pJ)
system.mem_ctrls0_1.readEnergy           129710566440                       # Energy for read commands per rank (pJ)
system.mem_ctrls0_1.writeEnergy             147981780                       # Energy for write commands per rank (pJ)
system.mem_ctrls0_1.refreshEnergy        1441976786640.000244                       # Energy for refresh commands per rank (pJ)
system.mem_ctrls0_1.actBackEnergy        614932563060                       # Energy for active background per rank (pJ)
system.mem_ctrls0_1.preBackEnergy         32602644480                       # Energy for precharge background per rank (pJ)
system.mem_ctrls0_1.actPowerDownEnergy   7063659352530                       # Energy for active power-down per rank (pJ)
system.mem_ctrls0_1.prePowerDownEnergy   515129325120                       # Energy for precharge power-down per rank (pJ)
system.mem_ctrls0_1.selfRefreshEnergy       411780720                       # Energy for self refresh per rank (pJ)
system.mem_ctrls0_1.totalEnergy          9997117316775                       # Total energy per rank (pJ)
system.mem_ctrls0_1.averagePower           547.288553                       # Core power per rank (mW)
system.mem_ctrls0_1.totalIdleTime        16833219117409                       # Total Idle time Per DRAM Rank
system.mem_ctrls0_1.memoryStateTime::IDLE  13958234538                       # Time in different power states
system.mem_ctrls0_1.memoryStateTime::REF 609974604000                       # Time in different power states
system.mem_ctrls0_1.memoryStateTime::SREF   1225539335                       # Time in different power states
system.mem_ctrls0_1.memoryStateTime::PRE_PDN 1341715685368                       # Time in different power states
system.mem_ctrls0_1.memoryStateTime::ACT 809476448638                       # Time in different power states
system.mem_ctrls0_1.memoryStateTime::ACT_PDN 15490279151120                       # Time in different power states
system.mem_ctrls1.pwrStateResidencyTicks::UNDEFINED 180348812825499                       # Cumulative time (in ticks) in various power states
system.mem_ctrls1.bytes_read::cpu.inst            128                       # Number of bytes read from this memory
system.mem_ctrls1.bytes_read::cpu.data             64                       # Number of bytes read from this memory
system.mem_ctrls1.bytes_read::switch_cpus.inst         1088                       # Number of bytes read from this memory
system.mem_ctrls1.bytes_read::switch_cpus.data   1941029952                       # Number of bytes read from this memory
system.mem_ctrls1.bytes_read::switch_cpus_1.inst          320                       # Number of bytes read from this memory
system.mem_ctrls1.bytes_read::switch_cpus_1.data    387826880                       # Number of bytes read from this memory
system.mem_ctrls1.bytes_read::total        2328858432                       # Number of bytes read from this memory
system.mem_ctrls1.bytes_inst_read::cpu.inst          128                       # Number of instructions bytes read from this memory
system.mem_ctrls1.bytes_inst_read::switch_cpus.inst         1088                       # Number of instructions bytes read from this memory
system.mem_ctrls1.bytes_inst_read::switch_cpus_1.inst          320                       # Number of instructions bytes read from this memory
system.mem_ctrls1.bytes_inst_read::total         1536                       # Number of instructions bytes read from this memory
system.mem_ctrls1.bytes_written::writebacks      3818816                       # Number of bytes written to this memory
system.mem_ctrls1.bytes_written::total        3818816                       # Number of bytes written to this memory
system.mem_ctrls1.num_reads::cpu.inst               2                       # Number of read requests responded to by this memory
system.mem_ctrls1.num_reads::cpu.data               1                       # Number of read requests responded to by this memory
system.mem_ctrls1.num_reads::switch_cpus.inst           17                       # Number of read requests responded to by this memory
system.mem_ctrls1.num_reads::switch_cpus.data     30328593                       # Number of read requests responded to by this memory
system.mem_ctrls1.num_reads::switch_cpus_1.inst            5                       # Number of read requests responded to by this memory
system.mem_ctrls1.num_reads::switch_cpus_1.data      6059795                       # Number of read requests responded to by this memory
system.mem_ctrls1.num_reads::total           36388413                       # Number of read requests responded to by this memory
system.mem_ctrls1.num_writes::writebacks        59669                       # Number of write requests responded to by this memory
system.mem_ctrls1.num_writes::total             59669                       # Number of write requests responded to by this memory
system.mem_ctrls1.bw_read::cpu.inst                 7                       # Total read bandwidth from this memory (bytes/s)
system.mem_ctrls1.bw_read::cpu.data                 4                       # Total read bandwidth from this memory (bytes/s)
system.mem_ctrls1.bw_read::switch_cpus.inst           60                       # Total read bandwidth from this memory (bytes/s)
system.mem_ctrls1.bw_read::switch_cpus.data    106260979                       # Total read bandwidth from this memory (bytes/s)
system.mem_ctrls1.bw_read::switch_cpus_1.inst           18                       # Total read bandwidth from this memory (bytes/s)
system.mem_ctrls1.bw_read::switch_cpus_1.data     21231442                       # Total read bandwidth from this memory (bytes/s)
system.mem_ctrls1.bw_read::total            127492508                       # Total read bandwidth from this memory (bytes/s)
system.mem_ctrls1.bw_inst_read::cpu.inst            7                       # Instruction read bandwidth from this memory (bytes/s)
system.mem_ctrls1.bw_inst_read::switch_cpus.inst           60                       # Instruction read bandwidth from this memory (bytes/s)
system.mem_ctrls1.bw_inst_read::switch_cpus_1.inst           18                       # Instruction read bandwidth from this memory (bytes/s)
system.mem_ctrls1.bw_inst_read::total              84                       # Instruction read bandwidth from this memory (bytes/s)
system.mem_ctrls1.bw_write::writebacks         209060                       # Write bandwidth from this memory (bytes/s)
system.mem_ctrls1.bw_write::total              209060                       # Write bandwidth from this memory (bytes/s)
system.mem_ctrls1.bw_total::writebacks         209060                       # Total bandwidth to/from this memory (bytes/s)
system.mem_ctrls1.bw_total::cpu.inst                7                       # Total bandwidth to/from this memory (bytes/s)
system.mem_ctrls1.bw_total::cpu.data                4                       # Total bandwidth to/from this memory (bytes/s)
system.mem_ctrls1.bw_total::switch_cpus.inst           60                       # Total bandwidth to/from this memory (bytes/s)
system.mem_ctrls1.bw_total::switch_cpus.data    106260979                       # Total bandwidth to/from this memory (bytes/s)
system.mem_ctrls1.bw_total::switch_cpus_1.inst           18                       # Total bandwidth to/from this memory (bytes/s)
system.mem_ctrls1.bw_total::switch_cpus_1.data     21231442                       # Total bandwidth to/from this memory (bytes/s)
system.mem_ctrls1.bw_total::total           127701568                       # Total bandwidth to/from this memory (bytes/s)
system.mem_ctrls1.readReqs                   36388413                       # Number of read requests accepted
system.mem_ctrls1.writeReqs                     59669                       # Number of write requests accepted
system.mem_ctrls1.readBursts                 36388413                       # Number of DRAM read bursts, including those serviced by the write queue
system.mem_ctrls1.writeBursts                   59669                       # Number of DRAM write bursts, including those merged in the write queue
system.mem_ctrls1.bytesReadDRAM            2328608768                       # Total number of bytes read from DRAM
system.mem_ctrls1.bytesReadWrQ                 249664                       # Total number of bytes read from write queue
system.mem_ctrls1.bytesWritten                3804160                       # Total number of bytes written to DRAM
system.mem_ctrls1.bytesReadSys             2328858432                       # Total read bytes from the system interface side
system.mem_ctrls1.bytesWrittenSys             3818816                       # Total written bytes from the system interface side
system.mem_ctrls1.servicedByWrQ                  3901                       # Number of DRAM read bursts serviced by the write queue
system.mem_ctrls1.mergedWrBursts                  214                       # Number of DRAM write bursts merged with an existing one
system.mem_ctrls1.neitherReadNorWriteReqs            0                       # Number of requests that are neither read nor write
system.mem_ctrls1.perBankRdBursts::0          2268154                       # Per bank write bursts
system.mem_ctrls1.perBankRdBursts::1          2271452                       # Per bank write bursts
system.mem_ctrls1.perBankRdBursts::2          2287967                       # Per bank write bursts
system.mem_ctrls1.perBankRdBursts::3          2280522                       # Per bank write bursts
system.mem_ctrls1.perBankRdBursts::4          2287050                       # Per bank write bursts
system.mem_ctrls1.perBankRdBursts::5          2277543                       # Per bank write bursts
system.mem_ctrls1.perBankRdBursts::6          2270210                       # Per bank write bursts
system.mem_ctrls1.perBankRdBursts::7          2278982                       # Per bank write bursts
system.mem_ctrls1.perBankRdBursts::8          2288882                       # Per bank write bursts
system.mem_ctrls1.perBankRdBursts::9          2263404                       # Per bank write bursts
system.mem_ctrls1.perBankRdBursts::10         2272461                       # Per bank write bursts
system.mem_ctrls1.perBankRdBursts::11         2278640                       # Per bank write bursts
system.mem_ctrls1.perBankRdBursts::12         2267420                       # Per bank write bursts
system.mem_ctrls1.perBankRdBursts::13         2267427                       # Per bank write bursts
system.mem_ctrls1.perBankRdBursts::14         2264567                       # Per bank write bursts
system.mem_ctrls1.perBankRdBursts::15         2259831                       # Per bank write bursts
system.mem_ctrls1.perBankWrBursts::0             3497                       # Per bank write bursts
system.mem_ctrls1.perBankWrBursts::1             3456                       # Per bank write bursts
system.mem_ctrls1.perBankWrBursts::2             3393                       # Per bank write bursts
system.mem_ctrls1.perBankWrBursts::3             4706                       # Per bank write bursts
system.mem_ctrls1.perBankWrBursts::4             4964                       # Per bank write bursts
system.mem_ctrls1.perBankWrBursts::5             3523                       # Per bank write bursts
system.mem_ctrls1.perBankWrBursts::6             3542                       # Per bank write bursts
system.mem_ctrls1.perBankWrBursts::7             3649                       # Per bank write bursts
system.mem_ctrls1.perBankWrBursts::8             3766                       # Per bank write bursts
system.mem_ctrls1.perBankWrBursts::9             3545                       # Per bank write bursts
system.mem_ctrls1.perBankWrBursts::10            3568                       # Per bank write bursts
system.mem_ctrls1.perBankWrBursts::11            3641                       # Per bank write bursts
system.mem_ctrls1.perBankWrBursts::12            3547                       # Per bank write bursts
system.mem_ctrls1.perBankWrBursts::13            3634                       # Per bank write bursts
system.mem_ctrls1.perBankWrBursts::14            3470                       # Per bank write bursts
system.mem_ctrls1.perBankWrBursts::15            3539                       # Per bank write bursts
system.mem_ctrls1.numRdRetry                        0                       # Number of times read queue was full causing retry
system.mem_ctrls1.numWrRetry                        0                       # Number of times write queue was full causing retry
system.mem_ctrls1.totGap                 18266629452966                       # Total gap between requests
system.mem_ctrls1.readPktSize::0                    0                       # Read request sizes (log2)
system.mem_ctrls1.readPktSize::1                    0                       # Read request sizes (log2)
system.mem_ctrls1.readPktSize::2                    0                       # Read request sizes (log2)
system.mem_ctrls1.readPktSize::3                    0                       # Read request sizes (log2)
system.mem_ctrls1.readPktSize::4                    0                       # Read request sizes (log2)
system.mem_ctrls1.readPktSize::5                    0                       # Read request sizes (log2)
system.mem_ctrls1.readPktSize::6             36388413                       # Read request sizes (log2)
system.mem_ctrls1.writePktSize::0                   0                       # Write request sizes (log2)
system.mem_ctrls1.writePktSize::1                   0                       # Write request sizes (log2)
system.mem_ctrls1.writePktSize::2                   0                       # Write request sizes (log2)
system.mem_ctrls1.writePktSize::3                   0                       # Write request sizes (log2)
system.mem_ctrls1.writePktSize::4                   0                       # Write request sizes (log2)
system.mem_ctrls1.writePktSize::5                   0                       # Write request sizes (log2)
system.mem_ctrls1.writePktSize::6               59669                       # Write request sizes (log2)
system.mem_ctrls1.rdQLenPdf::0               36383486                       # What read queue length does an incoming req see
system.mem_ctrls1.rdQLenPdf::1                    979                       # What read queue length does an incoming req see
system.mem_ctrls1.rdQLenPdf::2                     45                       # What read queue length does an incoming req see
system.mem_ctrls1.rdQLenPdf::3                      2                       # What read queue length does an incoming req see
system.mem_ctrls1.rdQLenPdf::4                      0                       # What read queue length does an incoming req see
system.mem_ctrls1.rdQLenPdf::5                      0                       # What read queue length does an incoming req see
system.mem_ctrls1.rdQLenPdf::6                      0                       # What read queue length does an incoming req see
system.mem_ctrls1.rdQLenPdf::7                      0                       # What read queue length does an incoming req see
system.mem_ctrls1.rdQLenPdf::8                      0                       # What read queue length does an incoming req see
system.mem_ctrls1.rdQLenPdf::9                      0                       # What read queue length does an incoming req see
system.mem_ctrls1.rdQLenPdf::10                     0                       # What read queue length does an incoming req see
system.mem_ctrls1.rdQLenPdf::11                     0                       # What read queue length does an incoming req see
system.mem_ctrls1.rdQLenPdf::12                     0                       # What read queue length does an incoming req see
system.mem_ctrls1.rdQLenPdf::13                     0                       # What read queue length does an incoming req see
system.mem_ctrls1.rdQLenPdf::14                     0                       # What read queue length does an incoming req see
system.mem_ctrls1.rdQLenPdf::15                     0                       # What read queue length does an incoming req see
system.mem_ctrls1.rdQLenPdf::16                     0                       # What read queue length does an incoming req see
system.mem_ctrls1.rdQLenPdf::17                     0                       # What read queue length does an incoming req see
system.mem_ctrls1.rdQLenPdf::18                     0                       # What read queue length does an incoming req see
system.mem_ctrls1.rdQLenPdf::19                     0                       # What read queue length does an incoming req see
system.mem_ctrls1.rdQLenPdf::20                     0                       # What read queue length does an incoming req see
system.mem_ctrls1.rdQLenPdf::21                     0                       # What read queue length does an incoming req see
system.mem_ctrls1.rdQLenPdf::22                     0                       # What read queue length does an incoming req see
system.mem_ctrls1.rdQLenPdf::23                     0                       # What read queue length does an incoming req see
system.mem_ctrls1.rdQLenPdf::24                     0                       # What read queue length does an incoming req see
system.mem_ctrls1.rdQLenPdf::25                     0                       # What read queue length does an incoming req see
system.mem_ctrls1.rdQLenPdf::26                     0                       # What read queue length does an incoming req see
system.mem_ctrls1.rdQLenPdf::27                     0                       # What read queue length does an incoming req see
system.mem_ctrls1.rdQLenPdf::28                     0                       # What read queue length does an incoming req see
system.mem_ctrls1.rdQLenPdf::29                     0                       # What read queue length does an incoming req see
system.mem_ctrls1.rdQLenPdf::30                     0                       # What read queue length does an incoming req see
system.mem_ctrls1.rdQLenPdf::31                     0                       # What read queue length does an incoming req see
system.mem_ctrls1.wrQLenPdf::0                      2                       # What write queue length does an incoming req see
system.mem_ctrls1.wrQLenPdf::1                      2                       # What write queue length does an incoming req see
system.mem_ctrls1.wrQLenPdf::2                      2                       # What write queue length does an incoming req see
system.mem_ctrls1.wrQLenPdf::3                      2                       # What write queue length does an incoming req see
system.mem_ctrls1.wrQLenPdf::4                      2                       # What write queue length does an incoming req see
system.mem_ctrls1.wrQLenPdf::5                      2                       # What write queue length does an incoming req see
system.mem_ctrls1.wrQLenPdf::6                      2                       # What write queue length does an incoming req see
system.mem_ctrls1.wrQLenPdf::7                      2                       # What write queue length does an incoming req see
system.mem_ctrls1.wrQLenPdf::8                      2                       # What write queue length does an incoming req see
system.mem_ctrls1.wrQLenPdf::9                      2                       # What write queue length does an incoming req see
system.mem_ctrls1.wrQLenPdf::10                     2                       # What write queue length does an incoming req see
system.mem_ctrls1.wrQLenPdf::11                     2                       # What write queue length does an incoming req see
system.mem_ctrls1.wrQLenPdf::12                     2                       # What write queue length does an incoming req see
system.mem_ctrls1.wrQLenPdf::13                     2                       # What write queue length does an incoming req see
system.mem_ctrls1.wrQLenPdf::14                     2                       # What write queue length does an incoming req see
system.mem_ctrls1.wrQLenPdf::15                  3206                       # What write queue length does an incoming req see
system.mem_ctrls1.wrQLenPdf::16                  3224                       # What write queue length does an incoming req see
system.mem_ctrls1.wrQLenPdf::17                  3312                       # What write queue length does an incoming req see
system.mem_ctrls1.wrQLenPdf::18                  3314                       # What write queue length does an incoming req see
system.mem_ctrls1.wrQLenPdf::19                  3314                       # What write queue length does an incoming req see
system.mem_ctrls1.wrQLenPdf::20                  3314                       # What write queue length does an incoming req see
system.mem_ctrls1.wrQLenPdf::21                  3313                       # What write queue length does an incoming req see
system.mem_ctrls1.wrQLenPdf::22                  3314                       # What write queue length does an incoming req see
system.mem_ctrls1.wrQLenPdf::23                  3315                       # What write queue length does an incoming req see
system.mem_ctrls1.wrQLenPdf::24                  3311                       # What write queue length does an incoming req see
system.mem_ctrls1.wrQLenPdf::25                  3311                       # What write queue length does an incoming req see
system.mem_ctrls1.wrQLenPdf::26                  3311                       # What write queue length does an incoming req see
system.mem_ctrls1.wrQLenPdf::27                  3311                       # What write queue length does an incoming req see
system.mem_ctrls1.wrQLenPdf::28                  3311                       # What write queue length does an incoming req see
system.mem_ctrls1.wrQLenPdf::29                  3311                       # What write queue length does an incoming req see
system.mem_ctrls1.wrQLenPdf::30                  3311                       # What write queue length does an incoming req see
system.mem_ctrls1.wrQLenPdf::31                  3311                       # What write queue length does an incoming req see
system.mem_ctrls1.wrQLenPdf::32                  3311                       # What write queue length does an incoming req see
system.mem_ctrls1.wrQLenPdf::33                     0                       # What write queue length does an incoming req see
system.mem_ctrls1.wrQLenPdf::34                     0                       # What write queue length does an incoming req see
system.mem_ctrls1.wrQLenPdf::35                     0                       # What write queue length does an incoming req see
system.mem_ctrls1.wrQLenPdf::36                     0                       # What write queue length does an incoming req see
system.mem_ctrls1.wrQLenPdf::37                     0                       # What write queue length does an incoming req see
system.mem_ctrls1.wrQLenPdf::38                     0                       # What write queue length does an incoming req see
system.mem_ctrls1.wrQLenPdf::39                     0                       # What write queue length does an incoming req see
system.mem_ctrls1.wrQLenPdf::40                     0                       # What write queue length does an incoming req see
system.mem_ctrls1.wrQLenPdf::41                     0                       # What write queue length does an incoming req see
system.mem_ctrls1.wrQLenPdf::42                     0                       # What write queue length does an incoming req see
system.mem_ctrls1.wrQLenPdf::43                     0                       # What write queue length does an incoming req see
system.mem_ctrls1.wrQLenPdf::44                     0                       # What write queue length does an incoming req see
system.mem_ctrls1.wrQLenPdf::45                     0                       # What write queue length does an incoming req see
system.mem_ctrls1.wrQLenPdf::46                     0                       # What write queue length does an incoming req see
system.mem_ctrls1.wrQLenPdf::47                     0                       # What write queue length does an incoming req see
system.mem_ctrls1.wrQLenPdf::48                     0                       # What write queue length does an incoming req see
system.mem_ctrls1.wrQLenPdf::49                     0                       # What write queue length does an incoming req see
system.mem_ctrls1.wrQLenPdf::50                     0                       # What write queue length does an incoming req see
system.mem_ctrls1.wrQLenPdf::51                     0                       # What write queue length does an incoming req see
system.mem_ctrls1.wrQLenPdf::52                     0                       # What write queue length does an incoming req see
system.mem_ctrls1.wrQLenPdf::53                     0                       # What write queue length does an incoming req see
system.mem_ctrls1.wrQLenPdf::54                     0                       # What write queue length does an incoming req see
system.mem_ctrls1.wrQLenPdf::55                     0                       # What write queue length does an incoming req see
system.mem_ctrls1.wrQLenPdf::56                     0                       # What write queue length does an incoming req see
system.mem_ctrls1.wrQLenPdf::57                     0                       # What write queue length does an incoming req see
system.mem_ctrls1.wrQLenPdf::58                     0                       # What write queue length does an incoming req see
system.mem_ctrls1.wrQLenPdf::59                     0                       # What write queue length does an incoming req see
system.mem_ctrls1.wrQLenPdf::60                     0                       # What write queue length does an incoming req see
system.mem_ctrls1.wrQLenPdf::61                     0                       # What write queue length does an incoming req see
system.mem_ctrls1.wrQLenPdf::62                     0                       # What write queue length does an incoming req see
system.mem_ctrls1.wrQLenPdf::63                     0                       # What write queue length does an incoming req see
system.mem_ctrls1.bytesPerActivate::samples     36365145                       # Bytes accessed per row activation
system.mem_ctrls1.bytesPerActivate::mean    64.138682                       # Bytes accessed per row activation
system.mem_ctrls1.bytesPerActivate::gmean    64.081718                       # Bytes accessed per row activation
system.mem_ctrls1.bytesPerActivate::stdev     4.362428                       # Bytes accessed per row activation
system.mem_ctrls1.bytesPerActivate::0-127     36308915     99.85%     99.85% # Bytes accessed per row activation
system.mem_ctrls1.bytesPerActivate::128-255        51257      0.14%     99.99% # Bytes accessed per row activation
system.mem_ctrls1.bytesPerActivate::256-383         3830      0.01%    100.00% # Bytes accessed per row activation
system.mem_ctrls1.bytesPerActivate::384-511          754      0.00%    100.00% # Bytes accessed per row activation
system.mem_ctrls1.bytesPerActivate::512-639          238      0.00%    100.00% # Bytes accessed per row activation
system.mem_ctrls1.bytesPerActivate::640-767           73      0.00%    100.00% # Bytes accessed per row activation
system.mem_ctrls1.bytesPerActivate::768-895           49      0.00%    100.00% # Bytes accessed per row activation
system.mem_ctrls1.bytesPerActivate::896-1023           23      0.00%    100.00% # Bytes accessed per row activation
system.mem_ctrls1.bytesPerActivate::1024-1151            6      0.00%    100.00% # Bytes accessed per row activation
system.mem_ctrls1.bytesPerActivate::total     36365145                       # Bytes accessed per row activation
system.mem_ctrls1.rdPerTurnAround::samples         3312                       # Reads before turning the bus around for writes
system.mem_ctrls1.rdPerTurnAround::mean  10971.095411                       # Reads before turning the bus around for writes
system.mem_ctrls1.rdPerTurnAround::gmean   130.097565                       # Reads before turning the bus around for writes
system.mem_ctrls1.rdPerTurnAround::stdev 171096.950199                       # Reads before turning the bus around for writes
system.mem_ctrls1.rdPerTurnAround::0-262143         3290     99.34%     99.34% # Reads before turning the bus around for writes
system.mem_ctrls1.rdPerTurnAround::262144-524287           10      0.30%     99.64% # Reads before turning the bus around for writes
system.mem_ctrls1.rdPerTurnAround::524288-786431            3      0.09%     99.73% # Reads before turning the bus around for writes
system.mem_ctrls1.rdPerTurnAround::786432-1.04858e+06            4      0.12%     99.85% # Reads before turning the bus around for writes
system.mem_ctrls1.rdPerTurnAround::1.04858e+06-1.31072e+06            1      0.03%     99.88% # Reads before turning the bus around for writes
system.mem_ctrls1.rdPerTurnAround::1.31072e+06-1.57286e+06            1      0.03%     99.91% # Reads before turning the bus around for writes
system.mem_ctrls1.rdPerTurnAround::3.93216e+06-4.1943e+06            1      0.03%     99.94% # Reads before turning the bus around for writes
system.mem_ctrls1.rdPerTurnAround::5.76717e+06-6.02931e+06            2      0.06%    100.00% # Reads before turning the bus around for writes
system.mem_ctrls1.rdPerTurnAround::total         3312                       # Reads before turning the bus around for writes
system.mem_ctrls1.wrPerTurnAround::samples         3312                       # Writes before turning the bus around for reads
system.mem_ctrls1.wrPerTurnAround::mean     17.946860                       # Writes before turning the bus around for reads
system.mem_ctrls1.wrPerTurnAround::gmean    17.943371                       # Writes before turning the bus around for reads
system.mem_ctrls1.wrPerTurnAround::stdev     0.343489                       # Writes before turning the bus around for reads
system.mem_ctrls1.wrPerTurnAround::16              88      2.66%      2.66% # Writes before turning the bus around for reads
system.mem_ctrls1.wrPerTurnAround::17              18      0.54%      3.20% # Writes before turning the bus around for reads
system.mem_ctrls1.wrPerTurnAround::18            3191     96.35%     99.55% # Writes before turning the bus around for reads
system.mem_ctrls1.wrPerTurnAround::19              14      0.42%     99.97% # Writes before turning the bus around for reads
system.mem_ctrls1.wrPerTurnAround::22               1      0.03%    100.00% # Writes before turning the bus around for reads
system.mem_ctrls1.wrPerTurnAround::total         3312                       # Writes before turning the bus around for reads
system.mem_ctrls1.totQLat                1047151321311                       # Total ticks spent queuing
system.mem_ctrls1.totMemAccLat           1729360921311                       # Total ticks spent from burst creation until serviced by the DRAM
system.mem_ctrls1.totBusLat              181922560000                       # Total ticks spent in databus transfers
system.mem_ctrls1.avgQLat                    28780.14                       # Average queueing delay per DRAM burst
system.mem_ctrls1.avgBusLat                   5000.00                       # Average bus latency per DRAM burst
system.mem_ctrls1.avgMemAccLat               47530.14                       # Average memory access latency per DRAM burst
system.mem_ctrls1.avgRdBW                      127.48                       # Average DRAM read bandwidth in MiByte/s
system.mem_ctrls1.avgWrBW                        0.21                       # Average achieved write bandwidth in MiByte/s
system.mem_ctrls1.avgRdBWSys                   127.49                       # Average system read bandwidth in MiByte/s
system.mem_ctrls1.avgWrBWSys                     0.21                       # Average system write bandwidth in MiByte/s
system.mem_ctrls1.peakBW                     12800.00                       # Theoretical peak bandwidth in MiByte/s
system.mem_ctrls1.busUtil                        1.00                       # Data bus utilization in percentage
system.mem_ctrls1.busUtilRead                    1.00                       # Data bus utilization in percentage for reads
system.mem_ctrls1.busUtilWrite                   0.00                       # Data bus utilization in percentage for writes
system.mem_ctrls1.avgRdQLen                      1.00                       # Average read queue length when enqueuing
system.mem_ctrls1.avgWrQLen                     24.08                       # Average write queue length when enqueuing
system.mem_ctrls1.readRowHits                   61913                       # Number of row buffer hits during reads
system.mem_ctrls1.writeRowHits                  16887                       # Number of row buffer hits during writes
system.mem_ctrls1.readRowHitRate                 0.17                       # Row buffer hit rate for reads
system.mem_ctrls1.writeRowHitRate               28.40                       # Row buffer hit rate for writes
system.mem_ctrls1.avgGap                    501168.47                       # Average gap between requests
system.mem_ctrls1.pageHitRate                    0.22                       # Row buffer hit rate, read and write combined
system.mem_ctrls1_0.actEnergy            130035893400                       # Energy for activate commands per rank (pJ)
system.mem_ctrls1_0.preEnergy             69115708860                       # Energy for precharge commands per rank (pJ)
system.mem_ctrls1_0.readEnergy           130104223200                       # Energy for read commands per rank (pJ)
system.mem_ctrls1_0.writeEnergy             160410600                       # Energy for write commands per rank (pJ)
system.mem_ctrls1_0.refreshEnergy        1441973713440.000244                       # Energy for refresh commands per rank (pJ)
system.mem_ctrls1_0.actBackEnergy        616389247080                       # Energy for active background per rank (pJ)
system.mem_ctrls1_0.preBackEnergy         32624045280                       # Energy for precharge background per rank (pJ)
system.mem_ctrls1_0.actPowerDownEnergy   7066662336540                       # Energy for active power-down per rank (pJ)
system.mem_ctrls1_0.prePowerDownEnergy   511389099360                       # Energy for precharge power-down per rank (pJ)
system.mem_ctrls1_0.selfRefreshEnergy       379029120                       # Energy for self refresh per rank (pJ)
system.mem_ctrls1_0.totalEnergy          9998834721390                       # Total energy per rank (pJ)
system.mem_ctrls1_0.averagePower           547.382572                       # Core power per rank (mW)
system.mem_ctrls1_0.totalIdleTime        16830501997582                       # Total Idle time Per DRAM Rank
system.mem_ctrls1_0.memoryStateTime::IDLE  13969400266                       # Time in different power states
system.mem_ctrls1_0.memoryStateTime::REF 609973196000                       # Time in different power states
system.mem_ctrls1_0.memoryStateTime::SREF   1129168362                       # Time in different power states
system.mem_ctrls1_0.memoryStateTime::PRE_PDN 1331369592671                       # Time in different power states
system.mem_ctrls1_0.memoryStateTime::ACT 812183010750                       # Time in different power states
system.mem_ctrls1_0.memoryStateTime::ACT_PDN 15498005294950                       # Time in different power states
system.mem_ctrls1_1.actEnergy            129611291880                       # Energy for activate commands per rank (pJ)
system.mem_ctrls1_1.preEnergy             68890016415                       # Energy for precharge commands per rank (pJ)
system.mem_ctrls1_1.readEnergy           129681192480                       # Energy for read commands per rank (pJ)
system.mem_ctrls1_1.writeEnergy             149866200                       # Energy for write commands per rank (pJ)
system.mem_ctrls1_1.refreshEnergy        1441970640240.000244                       # Energy for refresh commands per rank (pJ)
system.mem_ctrls1_1.actBackEnergy        614482465410                       # Energy for active background per rank (pJ)
system.mem_ctrls1_1.preBackEnergy         32552730720                       # Energy for precharge background per rank (pJ)
system.mem_ctrls1_1.actPowerDownEnergy   7063030663050                       # Energy for active power-down per rank (pJ)
system.mem_ctrls1_1.prePowerDownEnergy   516076289280                       # Energy for precharge power-down per rank (pJ)
system.mem_ctrls1_1.selfRefreshEnergy       415593780                       # Energy for self refresh per rank (pJ)
system.mem_ctrls1_1.totalEnergy          9996861265365                       # Total energy per rank (pJ)
system.mem_ctrls1_1.averagePower           547.274536                       # Core power per rank (mW)
system.mem_ctrls1_1.totalIdleTime        16833474682807                       # Total Idle time Per DRAM Rank
system.mem_ctrls1_1.memoryStateTime::IDLE  13975593236                       # Time in different power states
system.mem_ctrls1_1.memoryStateTime::REF 609971962000                       # Time in different power states
system.mem_ctrls1_1.memoryStateTime::SREF   1255514061                       # Time in different power states
system.mem_ctrls1_1.memoryStateTime::PRE_PDN 1343675653954                       # Time in different power states
system.mem_ctrls1_1.memoryStateTime::ACT 809207268651                       # Time in different power states
system.mem_ctrls1_1.memoryStateTime::ACT_PDN 15488543671097                       # Time in different power states
system.pwrStateResidencyTicks::UNDEFINED 180348812825499                       # Cumulative time (in ticks) in various power states
system.cpu.branchPred.lookups                      14                       # Number of BP lookups
system.cpu.branchPred.condPredicted                14                       # Number of conditional branches predicted
system.cpu.branchPred.condIncorrect                 4                       # Number of conditional branches incorrect
system.cpu.branchPred.BTBLookups                    0                       # Number of BTB lookups
system.cpu.branchPred.BTBHits                       0                       # Number of BTB hits
system.cpu.branchPred.BTBCorrect                    0                       # Number of correct BTB predictions (this stat may not work properly.
system.cpu.branchPred.BTBHitPct                   nan                       # BTB Hit Percentage
system.cpu.branchPred.usedRAS                       0                       # Number of times the RAS was used to get a target.
system.cpu.branchPred.RASInCorrect                  0                       # Number of incorrect RAS predictions.
system.cpu.branchPred.indirectLookups               0                       # Number of indirect predictor lookups.
system.cpu.branchPred.indirectHits                  0                       # Number of indirect target hits.
system.cpu.branchPred.indirectMisses                0                       # Number of indirect misses.
system.cpu.branchPredindirectMispredicted            0                       # Number of mispredicted indirect branches.
system.cpu_voltage_domain.voltage                   1                       # Voltage in Volts
system.cpu_clk_domain.clock                       333                       # Clock period in ticks
system.cpu.dtb.fetch_hits                           0                       # ITB hits
system.cpu.dtb.fetch_misses                         0                       # ITB misses
system.cpu.dtb.fetch_acv                            0                       # ITB acv
system.cpu.dtb.fetch_accesses                       0                       # ITB accesses
system.cpu.dtb.read_hits                            1                       # DTB read hits
system.cpu.dtb.read_misses                         11                       # DTB read misses
system.cpu.dtb.read_acv                             0                       # DTB read access violations
system.cpu.dtb.read_accesses                       12                       # DTB read accesses
system.cpu.dtb.write_hits                           0                       # DTB write hits
system.cpu.dtb.write_misses                         0                       # DTB write misses
system.cpu.dtb.write_acv                            0                       # DTB write access violations
system.cpu.dtb.write_accesses                       0                       # DTB write accesses
system.cpu.dtb.data_hits                            1                       # DTB hits
system.cpu.dtb.data_misses                         11                       # DTB misses
system.cpu.dtb.data_acv                             0                       # DTB access violations
system.cpu.dtb.data_accesses                       12                       # DTB accesses
system.cpu.itb.fetch_hits                          13                       # ITB hits
system.cpu.itb.fetch_misses                         0                       # ITB misses
system.cpu.itb.fetch_acv                            0                       # ITB acv
system.cpu.itb.fetch_accesses                      13                       # ITB accesses
system.cpu.itb.read_hits                            0                       # DTB read hits
system.cpu.itb.read_misses                          0                       # DTB read misses
system.cpu.itb.read_acv                             0                       # DTB read access violations
system.cpu.itb.read_accesses                        0                       # DTB read accesses
system.cpu.itb.write_hits                           0                       # DTB write hits
system.cpu.itb.write_misses                         0                       # DTB write misses
system.cpu.itb.write_acv                            0                       # DTB write access violations
system.cpu.itb.write_accesses                       0                       # DTB write accesses
system.cpu.itb.data_hits                            0                       # DTB hits
system.cpu.itb.data_misses                          0                       # DTB misses
system.cpu.itb.data_acv                             0                       # DTB access violations
system.cpu.itb.data_accesses                        0                       # DTB accesses
system.cpu.workload.num_syscalls                    0                       # Number of system calls
system.cpu.pwrStateResidencyTicks::ON    18266629662999                       # Cumulative time (in ticks) in various power states
system.cpu.numCycles                             1006                       # number of cpu cycles simulated
system.cpu.numWorkItemsStarted                      0                       # number of work items this cpu started
system.cpu.numWorkItemsCompleted                    0                       # number of work items this cpu completed
system.cpu.fetch.icacheStallCycles                 66                       # Number of cycles fetch is stalled on an Icache miss
system.cpu.fetch.Insts                            113                       # Number of instructions fetch has processed
system.cpu.fetch.Branches                          14                       # Number of branches that fetch encountered
system.cpu.fetch.Cycles                            15                       # Number of cycles fetch has run and was not squashing or blocked
system.cpu.fetch.SquashCycles                      11                       # Number of cycles fetch has spent squashing
system.cpu.fetch.PendingDrainCycles                15                       # Number of cycles fetch has spent waiting on pipes to drain
system.cpu.fetch.CacheLines                        13                       # Number of cache lines fetched
system.cpu.fetch.IcacheSquashes                     5                       # Number of outstanding Icache misses that were squashed
system.cpu.fetch.rateDist::samples                101                       # Number of instructions fetched each cycle (Total)
system.cpu.fetch.rateDist::mean              1.118812                       # Number of instructions fetched each cycle (Total)
system.cpu.fetch.rateDist::stdev             2.775922                       # Number of instructions fetched each cycle (Total)
system.cpu.fetch.rateDist::underflows               0      0.00%      0.00% # Number of instructions fetched each cycle (Total)
system.cpu.fetch.rateDist::0                       86     85.15%     85.15% # Number of instructions fetched each cycle (Total)
[...]
system.switch_cpus_1.iq.FU_type_0::total   1853170251                       # Type of FU issued
system.switch_cpus_1.iq.rate                 0.193605                       # Inst issue rate
system.switch_cpus_1.iq.fu_busy_cnt              4497                       # FU busy when requested
system.switch_cpus_1.iq.fu_busy_rate         0.000002                       # FU busy rate (busy events/executed inst)
system.switch_cpus_1.iq.int_inst_queue_reads  13278258618                       # Number of integer instruction queue reads
system.switch_cpus_1.iq.int_inst_queue_writes   6295554078                       # Number of integer instruction queue writes
system.switch_cpus_1.iq.int_inst_queue_wakeup_accesses   1164804745                       # Number of integer instruction queue wakeup accesses
system.switch_cpus_1.iq.fp_inst_queue_reads            0                       # Number of floating instruction queue reads
system.switch_cpus_1.iq.fp_inst_queue_writes            0                       # Number of floating instruction queue writes
system.switch_cpus_1.iq.fp_inst_queue_wakeup_accesses            0                       # Number of floating instruction queue wakeup accesses
system.switch_cpus_1.iq.int_alu_accesses   1853174748                       # Number of integer alu accesses
system.switch_cpus_1.iq.fp_alu_accesses             0                       # Number of floating point alu accesses
system.switch_cpus_1.iew.lsq.thread0.forwLoads          934                       # Number of loads that had data forwarded from stores
system.switch_cpus_1.iew.lsq.thread0.invAddrLoads            0                       # Number of loads ignored due to an invalid address
system.switch_cpus_1.iew.lsq.thread0.squashedLoads   1004045852                       # Number of loads squashed
system.switch_cpus_1.iew.lsq.thread0.ignoredResponses           13                       # Number of memory responses ignored because the instruction is squashed
system.switch_cpus_1.iew.lsq.thread0.memOrderViolation           38                       # Number of memory ordering violations
system.switch_cpus_1.iew.lsq.thread0.squashedStores       136242                       # Number of stores squashed
system.switch_cpus_1.iew.lsq.thread0.invAddrSwpfs            0                       # Number of software prefetches ignored due to an invalid address
system.switch_cpus_1.iew.lsq.thread0.blockedLoads            0                       # Number of blocked loads due to partial load-store forwarding
system.switch_cpus_1.iew.lsq.thread0.rescheduledLoads            0                       # Number of loads that were rescheduled
system.switch_cpus_1.iew.lsq.thread0.cacheBlocked         7545                       # Number of times an access to memory failed due to the cache being blocked
system.switch_cpus_1.iew.iewIdleCycles              0                       # Number of cycles IEW is idle
system.switch_cpus_1.iew.iewSquashCycles     33186864                       # Number of cycles IEW is squashing
system.switch_cpus_1.iew.iewBlockCycles    8435236189                       # Number of cycles IEW is blocking
system.switch_cpus_1.iew.iewUnblockCycles     40951732                       # Number of cycles IEW is unblocking
system.switch_cpus_1.iew.iewDispatchedInsts   3247795687                       # Number of instructions dispatched to IQ
system.switch_cpus_1.iew.iewDispSquashedInsts         4515                       # Number of squashed instructions skipped by dispatch
system.switch_cpus_1.iew.iewDispLoadInsts   1068300033                       # Number of dispatched load instructions
system.switch_cpus_1.iew.iewDispStoreInsts       148569                       # Number of dispatched store instructions
system.switch_cpus_1.iew.iewDispNonSpecInsts            0                       # Number of dispatched non-speculative instructions
system.switch_cpus_1.iew.iewIQFullEvents     19174000                       # Number of times the IQ has become full, causing a stall
system.switch_cpus_1.iew.iewLSQFullEvents      3911307                       # Number of times the LSQ has become full, causing a stall
system.switch_cpus_1.iew.memOrderViolationEvents           38                       # Number of memory order violations
system.switch_cpus_1.iew.predictedTakenIncorrect      1685559                       # Number of branches that were predicted taken incorrectly
system.switch_cpus_1.iew.predictedNotTakenIncorrect      2826044                       # Number of branches that were predicted not taken incorrectly
system.switch_cpus_1.iew.branchMispredicts      4511603                       # Number of branch mispredicts detected at execute
system.switch_cpus_1.iew.iewExecutedInsts   1848992219                       # Number of executed instructions
system.switch_cpus_1.iew.iewExecLoadInsts    748520075                       # Number of load instructions executed
system.switch_cpus_1.iew.iewExecSquashedInsts      4178030                       # Number of squashed instructions skipped in execute
system.switch_cpus_1.iew.exec_swp                   0                       # number of swp insts executed
system.switch_cpus_1.iew.exec_nop               18618                       # number of nop insts executed
system.switch_cpus_1.iew.exec_refs          748542511                       # number of memory reference insts executed
system.switch_cpus_1.iew.exec_branches      219707753                       # Number of branches executed
system.switch_cpus_1.iew.exec_stores            22436                       # Number of stores executed
system.switch_cpus_1.iew.exec_rate           0.193168                       # Inst execution rate
system.switch_cpus_1.iew.wb_sent           1848077434                       # cumulative count of insts sent to commit
system.switch_cpus_1.iew.wb_count          1164804745                       # cumulative count of insts written-back
system.switch_cpus_1.iew.wb_producers       670547442                       # num instructions producing a value
system.switch_cpus_1.iew.wb_consumers       923450874                       # num instructions consuming a value
system.switch_cpus_1.iew.wb_rate             0.121690                       # insts written-back per cycle
system.switch_cpus_1.iew.wb_fanout           0.726132                       # average fanout of values written-back
system.switch_cpus_1.commit.commitSquashedInsts   2816140557                       # The number of squashed insts skipped by commit
system.switch_cpus_1.commit.branchMispredicts      4333986                       # The number of times a branch was mispredicted
system.switch_cpus_1.commit.committed_per_cycle::samples   9207302574                       # Number of insts commited each cycle
system.switch_cpus_1.commit.committed_per_cycle::mean     0.021722                       # Number of insts commited each cycle
system.switch_cpus_1.commit.committed_per_cycle::stdev     0.276349                       # Number of insts commited each cycle
system.switch_cpus_1.commit.committed_per_cycle::underflows            0      0.00%      0.00% # Number of insts commited each cycle
system.switch_cpus_1.commit.committed_per_cycle::0   9104975479     98.89%     98.89% # Number of insts commited each cycle
system.switch_cpus_1.commit.committed_per_cycle::1     55551657      0.60%     99.49% # Number of insts commited each cycle
system.switch_cpus_1.commit.committed_per_cycle::2     32104124      0.35%     99.84% # Number of insts commited each cycle
system.switch_cpus_1.commit.committed_per_cycle::3      6061884      0.07%     99.91% # Number of insts commited each cycle
system.switch_cpus_1.commit.committed_per_cycle::4      1675167      0.02%     99.92% # Number of insts commited each cycle
system.switch_cpus_1.commit.committed_per_cycle::5        24122      0.00%     99.92% # Number of insts commited each cycle
system.switch_cpus_1.commit.committed_per_cycle::6         3204      0.00%     99.92% # Number of insts commited each cycle
system.switch_cpus_1.commit.committed_per_cycle::7        39826      0.00%     99.93% # Number of insts commited each cycle
system.switch_cpus_1.commit.committed_per_cycle::8      6867111      0.07%    100.00% # Number of insts commited each cycle
system.switch_cpus_1.commit.committed_per_cycle::overflows            0      0.00%    100.00% # Number of insts commited each cycle
system.switch_cpus_1.commit.committed_per_cycle::min_value            0                       # Number of insts commited each cycle
system.switch_cpus_1.commit.committed_per_cycle::max_value            8                       # Number of insts commited each cycle
system.switch_cpus_1.commit.committed_per_cycle::total   9207302574                       # Number of insts commited each cycle
system.switch_cpus_1.commit.committedInsts    200001729                       # Number of instructions committed
system.switch_cpus_1.commit.committedOps    200001729                       # Number of ops (including micro ops) committed
system.switch_cpus_1.commit.swp_count               0                       # Number of s/w prefetches committed
system.switch_cpus_1.commit.refs             64266478                       # Number of memory references committed
system.switch_cpus_1.commit.loads            64254151                       # Number of loads committed
system.switch_cpus_1.commit.membars                 0                       # Number of memory barriers committed
system.switch_cpus_1.commit.branches         49624817                       # Number of branches committed
system.switch_cpus_1.commit.fp_insts                0                       # Number of committed floating point instructions.
system.switch_cpus_1.commit.int_insts       199961763                       # Number of committed integer instructions.
system.switch_cpus_1.commit.function_calls          438                       # Number of function calls committed.
system.switch_cpus_1.commit.op_class_0::No_OpClass         1722      0.00%      0.00% # Class of committed instruction
system.switch_cpus_1.commit.op_class_0::IntAlu    135733506     67.87%     67.87% # Class of committed instruction
system.switch_cpus_1.commit.op_class_0::IntMult           23      0.00%     67.87% # Class of committed instruction
system.switch_cpus_1.commit.op_class_0::IntDiv            0      0.00%     67.87% # Class of committed instruction
system.switch_cpus_1.commit.op_class_0::FloatAdd            0      0.00%     67.87% # Class of committed instruction
system.switch_cpus_1.commit.op_class_0::FloatCmp            0      0.00%     67.87% # Class of committed instruction
system.switch_cpus_1.commit.op_class_0::FloatCvt            0      0.00%     67.87% # Class of committed instruction
system.switch_cpus_1.commit.op_class_0::FloatMult            0      0.00%     67.87% # Class of committed instruction
system.switch_cpus_1.commit.op_class_0::FloatMultAcc            0      0.00%     67.87% # Class of committed instruction
system.switch_cpus_1.commit.op_class_0::FloatDiv            0      0.00%     67.87% # Class of committed instruction
system.switch_cpus_1.commit.op_class_0::FloatMisc            0      0.00%     67.87% # Class of committed instruction
system.switch_cpus_1.commit.op_class_0::FloatSqrt            0      0.00%     67.87% # Class of committed instruction
system.switch_cpus_1.commit.op_class_0::SimdAdd            0      0.00%     67.87% # Class of committed instruction
system.switch_cpus_1.commit.op_class_0::SimdAddAcc            0      0.00%     67.87% # Class of committed instruction
system.switch_cpus_1.commit.op_class_0::SimdAlu            0      0.00%     67.87% # Class of committed instruction
system.switch_cpus_1.commit.op_class_0::SimdCmp            0      0.00%     67.87% # Class of committed instruction
system.switch_cpus_1.commit.op_class_0::SimdCvt            0      0.00%     67.87% # Class of committed instruction
system.switch_cpus_1.commit.op_class_0::SimdMisc            0      0.00%     67.87% # Class of committed instruction
system.switch_cpus_1.commit.op_class_0::SimdMult            0      0.00%     67.87% # Class of committed instruction
system.switch_cpus_1.commit.op_class_0::SimdMultAcc            0      0.00%     67.87% # Class of committed instruction
system.switch_cpus_1.commit.op_class_0::SimdShift            0      0.00%     67.87% # Class of committed instruction
system.switch_cpus_1.commit.op_class_0::SimdShiftAcc            0      0.00%     67.87% # Class of committed instruction
system.switch_cpus_1.commit.op_class_0::SimdSqrt            0      0.00%     67.87% # Class of committed instruction
system.switch_cpus_1.commit.op_class_0::SimdFloatAdd            0      0.00%     67.87% # Class of committed instruction
system.switch_cpus_1.commit.op_class_0::SimdFloatAlu            0      0.00%     67.87% # Class of committed instruction
system.switch_cpus_1.commit.op_class_0::SimdFloatCmp            0      0.00%     67.87% # Class of committed instruction
system.switch_cpus_1.commit.op_class_0::SimdFloatCvt            0      0.00%     67.87% # Class of committed instruction
system.switch_cpus_1.commit.op_class_0::SimdFloatDiv            0      0.00%     67.87% # Class of committed instruction
system.switch_cpus_1.commit.op_class_0::SimdFloatMisc            0      0.00%     67.87% # Class of committed instruction
system.switch_cpus_1.commit.op_class_0::SimdFloatMult            0      0.00%     67.87% # Class of committed instruction
system.switch_cpus_1.commit.op_class_0::SimdFloatMultAcc            0      0.00%     67.87% # Class of committed instruction
system.switch_cpus_1.commit.op_class_0::SimdFloatSqrt            0      0.00%     67.87% # Class of committed instruction
system.switch_cpus_1.commit.op_class_0::MemRead     64254151     32.13%     99.99% # Class of committed instruction
system.switch_cpus_1.commit.op_class_0::MemWrite        12327      0.01%    100.00% # Class of committed instruction
system.switch_cpus_1.commit.op_class_0::FloatMemRead            0      0.00%    100.00% # Class of committed instruction
system.switch_cpus_1.commit.op_class_0::FloatMemWrite            0      0.00%    100.00% # Class of committed instruction
system.switch_cpus_1.commit.op_class_0::IprAccess            0      0.00%    100.00% # Class of committed instruction
system.switch_cpus_1.commit.op_class_0::InstPrefetch            0      0.00%    100.00% # Class of committed instruction
system.switch_cpus_1.commit.op_class_0::total    200001729                       # Class of committed instruction
system.switch_cpus_1.commit.bw_lim_events      6867111                       # number cycles where commit BW limit reached
system.switch_cpus_1.rob.rob_reads        11841490738                       # The number of ROB reads
system.switch_cpus_1.rob.rob_writes        6396895282                       # The number of ROB writes
system.switch_cpus_1.timesIdled                     9                       # Number of times that the entire CPU went into an idle state and unscheduled itself
system.switch_cpus_1.idleCycles                  1381                       # Total number of cycles that the CPU has spent unscheduled due to idling
system.switch_cpus_1.committedInsts         200000007                       # Number of Instructions Simulated
system.switch_cpus_1.committedOps           200000007                       # Number of Ops (including micro ops) Simulated
system.switch_cpus_1.cpi                    47.859570                       # CPI: Cycles Per Instruction
system.switch_cpus_1.cpi_total              47.859570                       # CPI: Total CPI of All Threads
system.switch_cpus_1.ipc                     0.020894                       # IPC: Instructions Per Cycle
system.switch_cpus_1.ipc_total               0.020894                       # IPC: Total IPC of All Threads
system.switch_cpus_1.int_regfile_reads     2717215372                       # number of integer regfile reads
system.switch_cpus_1.int_regfile_writes     945103999                       # number of integer regfile writes
system.switch_cpus_1.fp_regfile_writes             32                       # number of floating regfile writes
system.tol3bus.snoop_filter.tot_requests    284833100                       # Total number of requests made to the snoop filter.
system.tol3bus.snoop_filter.hit_single_requests    142414526                       # Number of requests hitting in the snoop filter with a single holder of the requested data.
system.tol3bus.snoop_filter.hit_multi_requests            0                       # Number of requests hitting in the snoop filter with multiple (>1) holders of the requested data.
system.tol3bus.snoop_filter.tot_snoops          17371                       # Total number of snoops made to the snoop filter.
system.tol3bus.snoop_filter.hit_single_snoops        17371                       # Number of snoops hitting in the snoop filter with a single holder of the requested data.
system.tol3bus.snoop_filter.hit_multi_snoops            0                       # Number of snoops hitting in the snoop filter with multiple (>1) holders of the requested data.
system.tol3bus.pwrStateResidencyTicks::UNDEFINED 180348812825499                       # Cumulative time (in ticks) in various power states
system.tol3bus.trans_dist::ReadResp         142404715                       # Transaction distribution
system.tol3bus.trans_dist::WritebackDirty      1699216                       # Transaction distribution
system.tol3bus.trans_dist::CleanEvict       213414596                       # Transaction distribution
system.tol3bus.trans_dist::ReadExReq            13859                       # Transaction distribution
system.tol3bus.trans_dist::ReadExResp           13859                       # Transaction distribution
system.tol3bus.trans_dist::ReadSharedReq    142404715                       # Transaction distribution
system.tol3bus.pkt_count_system.cpu.l2.mem_side::system.l3.cpu_side    427251674                       # Packet count per connected master and slave (bytes)
system.tol3bus.pkt_size_system.cpu.l2.mem_side::system.l3.cpu_side   9215931200                       # Cumulative packet size per connected master and slave (bytes)
system.tol3bus.snoops                        72699286                       # Total snoops (count)
system.tol3bus.snoopTraffic                   7607360                       # Total snoop traffic (bytes)
system.tol3bus.snoop_fanout::samples        215117860                       # Request fanout histogram
system.tol3bus.snoop_fanout::mean            0.000081                       # Request fanout histogram
system.tol3bus.snoop_fanout::stdev           0.008986                       # Request fanout histogram
system.tol3bus.snoop_fanout::underflows             0      0.00%      0.00% # Request fanout histogram
system.tol3bus.snoop_fanout::0              215100489     99.99%     99.99% # Request fanout histogram
system.tol3bus.snoop_fanout::1                  17371      0.01%    100.00% # Request fanout histogram
system.tol3bus.snoop_fanout::overflows              0      0.00%    100.00% # Request fanout histogram
system.tol3bus.snoop_fanout::min_value              0                       # Request fanout histogram
system.tol3bus.snoop_fanout::max_value              1                       # Request fanout histogram
system.tol3bus.snoop_fanout::total          215117860                       # Request fanout histogram
system.tol3bus.reqLayer0.occupancy        95375679183                       # Layer occupancy (ticks)
system.tol3bus.reqLayer0.utilization              0.5                       # Layer utilization (%)
system.tol3bus.respLayer0.occupancy       94850770284                       # Layer occupancy (ticks)
system.tol3bus.respLayer0.utilization             0.5                       # Layer utilization (%)

---------- End Simulation Statistics   ----------
