
---------- Begin Simulation Statistics ----------
sim_seconds                                  1.094355                       # Number of seconds simulated
sim_ticks                                1094354846037                       # Number of ticks simulated
final_tick                               111420573600294                       # Number of ticks from beginning of simulation (restored from checkpoints and never reset)
sim_freq                                 1000000000000                       # Frequency of simulated ticks
host_inst_rate                                 627130                       # Simulator instruction rate (inst/s)
host_op_rate                                   627130                       # Simulator op (including micro ops) rate (op/s)
host_tick_rate                              571919322                       # Simulator tick rate (ticks/s)
host_mem_usage                                2384888                       # Number of bytes of host memory used
host_seconds                                  1913.48                       # Real time elapsed on the host
sim_insts                                  1200000011                       # Number of instructions simulated
sim_ops                                    1200000011                       # Number of ops (including micro ops) simulated
system.voltage_domain.voltage                       1                       # Voltage in Volts
system.clk_domain.clock                          1000                       # Clock period in ticks
system.mem_ctrls0.pwrStateResidencyTicks::UNDEFINED 111420573600294                       # Cumulative time (in ticks) in various power states
system.mem_ctrls0.bytes_read::cpu.inst            128                       # Number of bytes read from this memory
system.mem_ctrls0.bytes_read::cpu.data            192                       # Number of bytes read from this memory
system.mem_ctrls0.bytes_read::switch_cpus.inst        16640                       # Number of bytes read from this memory
system.mem_ctrls0.bytes_read::switch_cpus.data      2457856                       # Number of bytes read from this memory
system.mem_ctrls0.bytes_read::switch_cpus_1.inst         5312                       # Number of bytes read from this memory
system.mem_ctrls0.bytes_read::switch_cpus_1.data      2060672                       # Number of bytes read from this memory
system.mem_ctrls0.bytes_read::total           4540800                       # Number of bytes read from this memory
system.mem_ctrls0.bytes_inst_read::cpu.inst          128                       # Number of instructions bytes read from this memory
system.mem_ctrls0.bytes_inst_read::switch_cpus.inst        16640                       # Number of instructions bytes read from this memory
system.mem_ctrls0.bytes_inst_read::switch_cpus_1.inst         5312                       # Number of instructions bytes read from this memory
system.mem_ctrls0.bytes_inst_read::total        22080                       # Number of instructions bytes read from this memory
system.mem_ctrls0.bytes_written::writebacks      2369920                       # Number of bytes written to this memory
system.mem_ctrls0.bytes_written::total        2369920                       # Number of bytes written to this memory
system.mem_ctrls0.num_reads::cpu.inst               2                       # Number of read requests responded to by this memory
system.mem_ctrls0.num_reads::cpu.data               3                       # Number of read requests responded to by this memory
system.mem_ctrls0.num_reads::switch_cpus.inst          260                       # Number of read requests responded to by this memory
system.mem_ctrls0.num_reads::switch_cpus.data        38404                       # Number of read requests responded to by this memory
system.mem_ctrls0.num_reads::switch_cpus_1.inst           83                       # Number of read requests responded to by this memory
system.mem_ctrls0.num_reads::switch_cpus_1.data        32198                       # Number of read requests responded to by this memory
system.mem_ctrls0.num_reads::total              70950                       # Number of read requests responded to by this memory
system.mem_ctrls0.num_writes::writebacks        37030                       # Number of write requests responded to by this memory
system.mem_ctrls0.num_writes::total             37030                       # Number of write requests responded to by this memory
system.mem_ctrls0.bw_read::cpu.inst               117                       # Total read bandwidth from this memory (bytes/s)
system.mem_ctrls0.bw_read::cpu.data               175                       # Total read bandwidth from this memory (bytes/s)
system.mem_ctrls0.bw_read::switch_cpus.inst        15205                       # Total read bandwidth from this memory (bytes/s)
system.mem_ctrls0.bw_read::switch_cpus.data      2245941                       # Total read bandwidth from this memory (bytes/s)
system.mem_ctrls0.bw_read::switch_cpus_1.inst         4854                       # Total read bandwidth from this memory (bytes/s)
system.mem_ctrls0.bw_read::switch_cpus_1.data      1883002                       # Total read bandwidth from this memory (bytes/s)
system.mem_ctrls0.bw_read::total              4149294                       # Total read bandwidth from this memory (bytes/s)
system.mem_ctrls0.bw_inst_read::cpu.inst          117                       # Instruction read bandwidth from this memory (bytes/s)
system.mem_ctrls0.bw_inst_read::switch_cpus.inst        15205                       # Instruction read bandwidth from this memory (bytes/s)
system.mem_ctrls0.bw_inst_read::switch_cpus_1.inst         4854                       # Instruction read bandwidth from this memory (bytes/s)
system.mem_ctrls0.bw_inst_read::total           20176                       # Instruction read bandwidth from this memory (bytes/s)
system.mem_ctrls0.bw_write::writebacks        2165586                       # Write bandwidth from this memory (bytes/s)
system.mem_ctrls0.bw_write::total             2165586                       # Write bandwidth from this memory (bytes/s)
system.mem_ctrls0.bw_total::writebacks        2165586                       # Total bandwidth to/from this memory (bytes/s)
system.mem_ctrls0.bw_total::cpu.inst              117                       # Total bandwidth to/from this memory (bytes/s)
system.mem_ctrls0.bw_total::cpu.data              175                       # Total bandwidth to/from this memory (bytes/s)
system.mem_ctrls0.bw_total::switch_cpus.inst        15205                       # Total bandwidth to/from this memory (bytes/s)
system.mem_ctrls0.bw_total::switch_cpus.data      2245941                       # Total bandwidth to/from this memory (bytes/s)
system.mem_ctrls0.bw_total::switch_cpus_1.inst         4854                       # Total bandwidth to/from this memory (bytes/s)
system.mem_ctrls0.bw_total::switch_cpus_1.data      1883002                       # Total bandwidth to/from this memory (bytes/s)
system.mem_ctrls0.bw_total::total             6314880                       # Total bandwidth to/from this memory (bytes/s)
system.mem_ctrls0.readReqs                      70950                       # Number of read requests accepted
system.mem_ctrls0.writeReqs                     37030                       # Number of write requests accepted
system.mem_ctrls0.readBursts                    70950                       # Number of DRAM read bursts, including those serviced by the write queue
system.mem_ctrls0.writeBursts                   37030                       # Number of DRAM write bursts, including those merged in the write queue
system.mem_ctrls0.bytesReadDRAM               4538240                       # Total number of bytes read from DRAM
system.mem_ctrls0.bytesReadWrQ                   2560                       # Total number of bytes read from write queue
system.mem_ctrls0.bytesWritten                2367872                       # Total number of bytes written to DRAM
system.mem_ctrls0.bytesReadSys                4540800                       # Total read bytes from the system interface side
system.mem_ctrls0.bytesWrittenSys             2369920                       # Total written bytes from the system interface side
system.mem_ctrls0.servicedByWrQ                    40                       # Number of DRAM read bursts serviced by the write queue
system.mem_ctrls0.mergedWrBursts                    0                       # Number of DRAM write bursts merged with an existing one
system.mem_ctrls0.neitherReadNorWriteReqs            0                       # Number of requests that are neither read nor write
system.mem_ctrls0.perBankRdBursts::0             4417                       # Per bank write bursts
system.mem_ctrls0.perBankRdBursts::1             3707                       # Per bank write bursts
system.mem_ctrls0.perBankRdBursts::2             4124                       # Per bank write bursts
system.mem_ctrls0.perBankRdBursts::3             5099                       # Per bank write bursts
system.mem_ctrls0.perBankRdBursts::4             5034                       # Per bank write bursts
system.mem_ctrls0.perBankRdBursts::5             4385                       # Per bank write bursts
system.mem_ctrls0.perBankRdBursts::6             4037                       # Per bank write bursts
system.mem_ctrls0.perBankRdBursts::7             4649                       # Per bank write bursts
system.mem_ctrls0.perBankRdBursts::8             4484                       # Per bank write bursts
system.mem_ctrls0.perBankRdBursts::9             3854                       # Per bank write bursts
system.mem_ctrls0.perBankRdBursts::10            4419                       # Per bank write bursts
system.mem_ctrls0.perBankRdBursts::11            4759                       # Per bank write bursts
system.mem_ctrls0.perBankRdBursts::12            4967                       # Per bank write bursts
system.mem_ctrls0.perBankRdBursts::13            4373                       # Per bank write bursts
system.mem_ctrls0.perBankRdBursts::14            4145                       # Per bank write bursts
system.mem_ctrls0.perBankRdBursts::15            4457                       # Per bank write bursts
system.mem_ctrls0.perBankWrBursts::0             2302                       # Per bank write bursts
system.mem_ctrls0.perBankWrBursts::1             1547                       # Per bank write bursts
system.mem_ctrls0.perBankWrBursts::2             2095                       # Per bank write bursts
system.mem_ctrls0.perBankWrBursts::3             2869                       # Per bank write bursts
system.mem_ctrls0.perBankWrBursts::4             2982                       # Per bank write bursts
system.mem_ctrls0.perBankWrBursts::5             2355                       # Per bank write bursts
system.mem_ctrls0.perBankWrBursts::6             1827                       # Per bank write bursts
system.mem_ctrls0.perBankWrBursts::7             2469                       # Per bank write bursts
system.mem_ctrls0.perBankWrBursts::8             2335                       # Per bank write bursts
system.mem_ctrls0.perBankWrBursts::9             1784                       # Per bank write bursts
system.mem_ctrls0.perBankWrBursts::10            2243                       # Per bank write bursts
system.mem_ctrls0.perBankWrBursts::11            2736                       # Per bank write bursts
system.mem_ctrls0.perBankWrBursts::12            2804                       # Per bank write bursts
system.mem_ctrls0.perBankWrBursts::13            2207                       # Per bank write bursts
system.mem_ctrls0.perBankWrBursts::14            2035                       # Per bank write bursts
system.mem_ctrls0.perBankWrBursts::15            2408                       # Per bank write bursts
system.mem_ctrls0.numRdRetry                        0                       # Number of times read queue was full causing retry
system.mem_ctrls0.numWrRetry                        0                       # Number of times write queue was full causing retry
system.mem_ctrls0.totGap                 1094347235322                       # Total gap between requests
system.mem_ctrls0.readPktSize::0                    0                       # Read request sizes (log2)
system.mem_ctrls0.readPktSize::1                    0                       # Read request sizes (log2)
system.mem_ctrls0.readPktSize::2                    0                       # Read request sizes (log2)
system.mem_ctrls0.readPktSize::3                    0                       # Read request sizes (log2)
system.mem_ctrls0.readPktSize::4                    0                       # Read request sizes (log2)
system.mem_ctrls0.readPktSize::5                    0                       # Read request sizes (log2)
system.mem_ctrls0.readPktSize::6                70950                       # Read request sizes (log2)
system.mem_ctrls0.writePktSize::0                   0                       # Write request sizes (log2)
system.mem_ctrls0.writePktSize::1                   0                       # Write request sizes (log2)
system.mem_ctrls0.writePktSize::2                   0                       # Write request sizes (log2)
system.mem_ctrls0.writePktSize::3                   0                       # Write request sizes (log2)
system.mem_ctrls0.writePktSize::4                   0                       # Write request sizes (log2)
system.mem_ctrls0.writePktSize::5                   0                       # Write request sizes (log2)
system.mem_ctrls0.writePktSize::6               37030                       # Write request sizes (log2)
system.mem_ctrls0.rdQLenPdf::0                  65985                       # What read queue length does an incoming req see
system.mem_ctrls0.rdQLenPdf::1                   4723                       # What read queue length does an incoming req see
system.mem_ctrls0.rdQLenPdf::2                    200                       # What read queue length does an incoming req see
system.mem_ctrls0.rdQLenPdf::3                      2                       # What read queue length does an incoming req see
system.mem_ctrls0.rdQLenPdf::4                      0                       # What read queue length does an incoming req see
system.mem_ctrls0.rdQLenPdf::5                      0                       # What read queue length does an incoming req see
system.mem_ctrls0.rdQLenPdf::6                      0                       # What read queue length does an incoming req see
system.mem_ctrls0.rdQLenPdf::7                      0                       # What read queue length does an incoming req see
system.mem_ctrls0.rdQLenPdf::8                      0                       # What read queue length does an incoming req see
system.mem_ctrls0.rdQLenPdf::9                      0                       # What read queue length does an incoming req see
system.mem_ctrls0.rdQLenPdf::10                     0                       # What read queue length does an incoming req see
system.mem_ctrls0.rdQLenPdf::11                     0                       # What read queue length does an incoming req see
system.mem_ctrls0.rdQLenPdf::12                     0                       # What read queue length does an incoming req see
system.mem_ctrls0.rdQLenPdf::13                     0                       # What read queue length does an incoming req see
system.mem_ctrls0.rdQLenPdf::14                     0                       # What read queue length does an incoming req see
system.mem_ctrls0.rdQLenPdf::15                     0                       # What read queue length does an incoming req see
system.mem_ctrls0.rdQLenPdf::16                     0                       # What read queue length does an incoming req see
system.mem_ctrls0.rdQLenPdf::17                     0                       # What read queue length does an incoming req see
system.mem_ctrls0.rdQLenPdf::18                     0                       # What read queue length does an incoming req see
system.mem_ctrls0.rdQLenPdf::19                     0                       # What read queue length does an incoming req see
system.mem_ctrls0.rdQLenPdf::20                     0                       # What read queue length does an incoming req see
system.mem_ctrls0.rdQLenPdf::21                     0                       # What read queue length does an incoming req see
system.mem_ctrls0.rdQLenPdf::22                     0                       # What read queue length does an incoming req see
system.mem_ctrls0.rdQLenPdf::23                     0                       # What read queue length does an incoming req see
system.mem_ctrls0.rdQLenPdf::24                     0                       # What read queue length does an incoming req see
system.mem_ctrls0.rdQLenPdf::25                     0                       # What read queue length does an incoming req see
system.mem_ctrls0.rdQLenPdf::26                     0                       # What read queue length does an incoming req see
system.mem_ctrls0.rdQLenPdf::27                     0                       # What read queue length does an incoming req see
system.mem_ctrls0.rdQLenPdf::28                     0                       # What read queue length does an incoming req see
system.mem_ctrls0.rdQLenPdf::29                     0                       # What read queue length does an incoming req see
system.mem_ctrls0.rdQLenPdf::30                     0                       # What read queue length does an incoming req see
system.mem_ctrls0.rdQLenPdf::31                     0                       # What read queue length does an incoming req see
system.mem_ctrls0.wrQLenPdf::0                      2                       # What write queue length does an incoming req see
system.mem_ctrls0.wrQLenPdf::1                      2                       # What write queue length does an incoming req see
system.mem_ctrls0.wrQLenPdf::2                      2                       # What write queue length does an incoming req see
system.mem_ctrls0.wrQLenPdf::3                      2                       # What write queue length does an incoming req see
system.mem_ctrls0.wrQLenPdf::4                      2                       # What write queue length does an incoming req see
system.mem_ctrls0.wrQLenPdf::5                      2                       # What write queue length does an incoming req see
system.mem_ctrls0.wrQLenPdf::6                      2                       # What write queue length does an incoming req see
system.mem_ctrls0.wrQLenPdf::7                      2                       # What write queue length does an incoming req see
system.mem_ctrls0.wrQLenPdf::8                      2                       # What write queue length does an incoming req see
system.mem_ctrls0.wrQLenPdf::9                      2                       # What write queue length does an incoming req see
system.mem_ctrls0.wrQLenPdf::10                     2                       # What write queue length does an incoming req see
system.mem_ctrls0.wrQLenPdf::11                     2                       # What write queue length does an incoming req see
system.mem_ctrls0.wrQLenPdf::12                     2                       # What write queue length does an incoming req see
system.mem_ctrls0.wrQLenPdf::13                     2                       # What write queue length does an incoming req see
system.mem_ctrls0.wrQLenPdf::14                     2                       # What write queue length does an incoming req see
system.mem_ctrls0.wrQLenPdf::15                  1860                       # What write queue length does an incoming req see
system.mem_ctrls0.wrQLenPdf::16                  1923                       # What write queue length does an incoming req see
system.mem_ctrls0.wrQLenPdf::17                  2047                       # What write queue length does an incoming req see
system.mem_ctrls0.wrQLenPdf::18                  2072                       # What write queue length does an incoming req see
system.mem_ctrls0.wrQLenPdf::19                  2080                       # What write queue length does an incoming req see
system.mem_ctrls0.wrQLenPdf::20                  2074                       # What write queue length does an incoming req see
system.mem_ctrls0.wrQLenPdf::21                  2074                       # What write queue length does an incoming req see
system.mem_ctrls0.wrQLenPdf::22                  2103                       # What write queue length does an incoming req see
system.mem_ctrls0.wrQLenPdf::23                  2109                       # What write queue length does an incoming req see
system.mem_ctrls0.wrQLenPdf::24                  2095                       # What write queue length does an incoming req see
system.mem_ctrls0.wrQLenPdf::25                  2069                       # What write queue length does an incoming req see
system.mem_ctrls0.wrQLenPdf::26                  2073                       # What write queue length does an incoming req see
system.mem_ctrls0.wrQLenPdf::27                  2058                       # What write queue length does an incoming req see
system.mem_ctrls0.wrQLenPdf::28                  2062                       # What write queue length does an incoming req see
system.mem_ctrls0.wrQLenPdf::29                  2075                       # What write queue length does an incoming req see
system.mem_ctrls0.wrQLenPdf::30                  2105                       # What write queue length does an incoming req see
system.mem_ctrls0.wrQLenPdf::31                  2048                       # What write queue length does an incoming req see
system.mem_ctrls0.wrQLenPdf::32                  2046                       # What write queue length does an incoming req see
system.mem_ctrls0.wrQLenPdf::33                    18                       # What write queue length does an incoming req see
system.mem_ctrls0.wrQLenPdf::34                     6                       # What write queue length does an incoming req see
system.mem_ctrls0.wrQLenPdf::35                     2                       # What write queue length does an incoming req see
system.mem_ctrls0.wrQLenPdf::36                     1                       # What write queue length does an incoming req see
system.mem_ctrls0.wrQLenPdf::37                     0                       # What write queue length does an incoming req see
system.mem_ctrls0.wrQLenPdf::38                     0                       # What write queue length does an incoming req see
system.mem_ctrls0.wrQLenPdf::39                     0                       # What write queue length does an incoming req see
system.mem_ctrls0.wrQLenPdf::40                     0                       # What write queue length does an incoming req see
system.mem_ctrls0.wrQLenPdf::41                     0                       # What write queue length does an incoming req see
system.mem_ctrls0.wrQLenPdf::42                     0                       # What write queue length does an incoming req see
system.mem_ctrls0.wrQLenPdf::43                     0                       # What write queue length does an incoming req see
system.mem_ctrls0.wrQLenPdf::44                     0                       # What write queue length does an incoming req see
system.mem_ctrls0.wrQLenPdf::45                     0                       # What write queue length does an incoming req see
system.mem_ctrls0.wrQLenPdf::46                     0                       # What write queue length does an incoming req see
system.mem_ctrls0.wrQLenPdf::47                     0                       # What write queue length does an incoming req see
system.mem_ctrls0.wrQLenPdf::48                     0                       # What write queue length does an incoming req see
system.mem_ctrls0.wrQLenPdf::49                     0                       # What write queue length does an incoming req see
system.mem_ctrls0.wrQLenPdf::50                     0                       # What write queue length does an incoming req see
system.mem_ctrls0.wrQLenPdf::51                     0                       # What write queue length does an incoming req see
system.mem_ctrls0.wrQLenPdf::52                     0                       # What write queue length does an incoming req see
system.mem_ctrls0.wrQLenPdf::53                     0                       # What write queue length does an incoming req see
system.mem_ctrls0.wrQLenPdf::54                     0                       # What write queue length does an incoming req see
system.mem_ctrls0.wrQLenPdf::55                     0                       # What write queue length does an incoming req see
system.mem_ctrls0.wrQLenPdf::56                     0                       # What write queue length does an incoming req see
system.mem_ctrls0.wrQLenPdf::57                     0                       # What write queue length does an incoming req see
system.mem_ctrls0.wrQLenPdf::58                     0                       # What write queue length does an incoming req see
system.mem_ctrls0.wrQLenPdf::59                     0                       # What write queue length does an incoming req see
system.mem_ctrls0.wrQLenPdf::60                     0                       # What write queue length does an incoming req see
system.mem_ctrls0.wrQLenPdf::61                     0                       # What write queue length does an incoming req see
system.mem_ctrls0.wrQLenPdf::62                     0                       # What write queue length does an incoming req see
system.mem_ctrls0.wrQLenPdf::63                     0                       # What write queue length does an incoming req see
system.mem_ctrls0.bytesPerActivate::samples        53373                       # Bytes accessed per row activation
system.mem_ctrls0.bytesPerActivate::mean   129.393364                       # Bytes accessed per row activation
system.mem_ctrls0.bytesPerActivate::gmean   107.479914                       # Bytes accessed per row activation
system.mem_ctrls0.bytesPerActivate::stdev   100.797253                       # Bytes accessed per row activation
system.mem_ctrls0.bytesPerActivate::0-127        24076     45.11%     45.11% # Bytes accessed per row activation
system.mem_ctrls0.bytesPerActivate::128-255        24648     46.18%     91.29% # Bytes accessed per row activation
system.mem_ctrls0.bytesPerActivate::256-383         2282      4.28%     95.57% # Bytes accessed per row activation
system.mem_ctrls0.bytesPerActivate::384-511         1242      2.33%     97.89% # Bytes accessed per row activation
system.mem_ctrls0.bytesPerActivate::512-639          707      1.32%     99.22% # Bytes accessed per row activation
system.mem_ctrls0.bytesPerActivate::640-767          297      0.56%     99.77% # Bytes accessed per row activation
system.mem_ctrls0.bytesPerActivate::768-895          104      0.19%     99.97% # Bytes accessed per row activation
system.mem_ctrls0.bytesPerActivate::896-1023           16      0.03%    100.00% # Bytes accessed per row activation
system.mem_ctrls0.bytesPerActivate::1024-1151            1      0.00%    100.00% # Bytes accessed per row activation
system.mem_ctrls0.bytesPerActivate::total        53373                       # Bytes accessed per row activation
system.mem_ctrls0.rdPerTurnAround::samples         2046                       # Reads before turning the bus around for writes
system.mem_ctrls0.rdPerTurnAround::mean     34.647116                       # Reads before turning the bus around for writes
system.mem_ctrls0.rdPerTurnAround::stdev   707.074966                       # Reads before turning the bus around for writes
system.mem_ctrls0.rdPerTurnAround::0-1023         2045     99.95%     99.95% # Reads before turning the bus around for writes
system.mem_ctrls0.rdPerTurnAround::31744-32767            1      0.05%    100.00% # Reads before turning the bus around for writes
system.mem_ctrls0.rdPerTurnAround::total         2046                       # Reads before turning the bus around for writes
system.mem_ctrls0.wrPerTurnAround::samples         2046                       # Writes before turning the bus around for reads
system.mem_ctrls0.wrPerTurnAround::mean     18.083089                       # Writes before turning the bus around for reads
system.mem_ctrls0.wrPerTurnAround::gmean    18.065604                       # Writes before turning the bus around for reads
system.mem_ctrls0.wrPerTurnAround::stdev     0.789873                       # Writes before turning the bus around for reads
system.mem_ctrls0.wrPerTurnAround::16             141      6.89%      6.89% # Writes before turning the bus around for reads
system.mem_ctrls0.wrPerTurnAround::17              38      1.86%      8.75% # Writes before turning the bus around for reads
system.mem_ctrls0.wrPerTurnAround::18            1460     71.36%     80.11% # Writes before turning the bus around for reads
system.mem_ctrls0.wrPerTurnAround::19             339     16.57%     96.68% # Writes before turning the bus around for reads
system.mem_ctrls0.wrPerTurnAround::20              54      2.64%     99.32% # Writes before turning the bus around for reads
system.mem_ctrls0.wrPerTurnAround::21              13      0.64%     99.95% # Writes before turning the bus around for reads
system.mem_ctrls0.wrPerTurnAround::22               1      0.05%    100.00% # Writes before turning the bus around for reads
system.mem_ctrls0.wrPerTurnAround::total         2046                       # Writes before turning the bus around for reads
system.mem_ctrls0.totQLat                  1442512973                       # Total ticks spent queuing
system.mem_ctrls0.totMemAccLat             2772075473                       # Total ticks spent from burst creation until serviced by the DRAM
system.mem_ctrls0.totBusLat                 354550000                       # Total ticks spent in databus transfers
system.mem_ctrls0.avgQLat                    20342.87                       # Average queueing delay per DRAM burst
system.mem_ctrls0.avgBusLat                   5000.00                       # Average bus latency per DRAM burst
system.mem_ctrls0.avgMemAccLat               39092.87                       # Average memory access latency per DRAM burst
system.mem_ctrls0.avgRdBW                        4.15                       # Average DRAM read bandwidth in MiByte/s
system.mem_ctrls0.avgWrBW                        2.16                       # Average achieved write bandwidth in MiByte/s
system.mem_ctrls0.avgRdBWSys                     4.15                       # Average system read bandwidth in MiByte/s
system.mem_ctrls0.avgWrBWSys                     2.17                       # Average system write bandwidth in MiByte/s
system.mem_ctrls0.peakBW                     12800.00                       # Theoretical peak bandwidth in MiByte/s
system.mem_ctrls0.busUtil                        0.05                       # Data bus utilization in percentage
system.mem_ctrls0.busUtilRead                    0.03                       # Data bus utilization in percentage for reads
system.mem_ctrls0.busUtilWrite                   0.02                       # Data bus utilization in percentage for writes
system.mem_ctrls0.avgRdQLen                      1.00                       # Average read queue length when enqueuing
system.mem_ctrls0.avgWrQLen                      0.91                       # Average write queue length when enqueuing
system.mem_ctrls0.readRowHits                   43768                       # Number of row buffer hits during reads
system.mem_ctrls0.writeRowHits                  10767                       # Number of row buffer hits during writes
system.mem_ctrls0.readRowHitRate                61.72                       # Row buffer hit rate for reads
system.mem_ctrls0.writeRowHitRate               29.08                       # Row buffer hit rate for writes
system.mem_ctrls0.avgGap                  10134721.57                       # Average gap between requests
system.mem_ctrls0.pageHitRate                   50.52                       # Row buffer hit rate, read and write combined
system.mem_ctrls0_0.actEnergy               189895440                       # Energy for activate commands per rank (pJ)
system.mem_ctrls0_0.preEnergy               100931820                       # Energy for precharge commands per rank (pJ)
system.mem_ctrls0_0.readEnergy              253127280                       # Energy for read commands per rank (pJ)
system.mem_ctrls0_0.writeEnergy              96288120                       # Energy for write commands per rank (pJ)
system.mem_ctrls0_0.refreshEnergy        5326470240.000001                       # Energy for refresh commands per rank (pJ)
system.mem_ctrls0_0.actBackEnergy          2504350290                       # Energy for active background per rank (pJ)
system.mem_ctrls0_0.preBackEnergy           146386080                       # Energy for precharge background per rank (pJ)
system.mem_ctrls0_0.actPowerDownEnergy    20577283860                       # Energy for active power-down per rank (pJ)
system.mem_ctrls0_0.prePowerDownEnergy     5371779360                       # Energy for precharge power-down per rank (pJ)
system.mem_ctrls0_0.selfRefreshEnergy    247237791570                       # Energy for self refresh per rank (pJ)
system.mem_ctrls0_0.totalEnergy          281804858460                       # Total energy per rank (pJ)
system.mem_ctrls0_0.averagePower           257.507754                       # Core power per rank (mW)
system.mem_ctrls0_0.totalIdleTime        1088431142013                       # Total Idle time Per DRAM Rank
system.mem_ctrls0_0.memoryStateTime::IDLE    147801313                       # Time in different power states
system.mem_ctrls0_0.memoryStateTime::REF   2255284000                       # Time in different power states
system.mem_ctrls0_0.memoryStateTime::SREF 1029365773287                       # Time in different power states
system.mem_ctrls0_0.memoryStateTime::PRE_PDN  13990787168                       # Time in different power states
system.mem_ctrls0_0.memoryStateTime::ACT   3470037967                       # Time in different power states
system.mem_ctrls0_0.memoryStateTime::ACT_PDN  45125162302                       # Time in different power states
system.mem_ctrls0_1.actEnergy               191187780                       # Energy for activate commands per rank (pJ)
system.mem_ctrls0_1.preEnergy               101618715                       # Energy for precharge commands per rank (pJ)
system.mem_ctrls0_1.readEnergy              253170120                       # Energy for read commands per rank (pJ)
system.mem_ctrls0_1.writeEnergy              96841440                       # Energy for write commands per rank (pJ)
system.mem_ctrls0_1.refreshEnergy        5237347440.000001                       # Energy for refresh commands per rank (pJ)
system.mem_ctrls0_1.actBackEnergy          2521775760                       # Energy for active background per rank (pJ)
system.mem_ctrls0_1.preBackEnergy           136030080                       # Energy for precharge background per rank (pJ)
system.mem_ctrls0_1.actPowerDownEnergy    20347919850                       # Energy for active power-down per rank (pJ)
system.mem_ctrls0_1.prePowerDownEnergy     5319216480                       # Energy for precharge power-down per rank (pJ)
system.mem_ctrls0_1.selfRefreshEnergy    247350412485                       # Energy for self refresh per rank (pJ)
system.mem_ctrls0_1.totalEnergy          281556026700                       # Total energy per rank (pJ)
system.mem_ctrls0_1.averagePower           257.280376                       # Core power per rank (mW)
system.mem_ctrls0_1.totalIdleTime        1088414649840                       # Total Idle time Per DRAM Rank
system.mem_ctrls0_1.memoryStateTime::IDLE    122991496                       # Time in different power states
system.mem_ctrls0_1.memoryStateTime::REF   2217170000                       # Time in different power states
system.mem_ctrls0_1.memoryStateTime::SREF 1029994512287                       # Time in different power states
system.mem_ctrls0_1.memoryStateTime::PRE_PDN  13850337128                       # Time in different power states
system.mem_ctrls0_1.memoryStateTime::ACT   3549460284                       # Time in different power states
system.mem_ctrls0_1.memoryStateTime::ACT_PDN  44620374842                       # Time in different power states
system.mem_ctrls1.pwrStateResidencyTicks::UNDEFINED 111420573600294                       # Cumulative time (in ticks) in various power states
system.mem_ctrls1.bytes_read::cpu.inst             64                       # Number of bytes read from this memory
system.mem_ctrls1.bytes_read::cpu.data             64                       # Number of bytes read from this memory
system.mem_ctrls1.bytes_read::switch_cpus.inst        16832                       # Number of bytes read from this memory
system.mem_ctrls1.bytes_read::switch_cpus.data      2457472                       # Number of bytes read from this memory
system.mem_ctrls1.bytes_read::switch_cpus_1.inst         4992                       # Number of bytes read from this memory
system.mem_ctrls1.bytes_read::switch_cpus_1.data      2039232                       # Number of bytes read from this memory
system.mem_ctrls1.bytes_read::total           4518656                       # Number of bytes read from this memory
system.mem_ctrls1.bytes_inst_read::cpu.inst           64                       # Number of instructions bytes read from this memory
system.mem_ctrls1.bytes_inst_read::switch_cpus.inst        16832                       # Number of instructions bytes read from this memory
system.mem_ctrls1.bytes_inst_read::switch_cpus_1.inst         4992                       # Number of instructions bytes read from this memory
system.mem_ctrls1.bytes_inst_read::total        21888                       # Number of instructions bytes read from this memory
system.mem_ctrls1.bytes_written::writebacks      2357376                       # Number of bytes written to this memory
system.mem_ctrls1.bytes_written::total        2357376                       # Number of bytes written to this memory
system.mem_ctrls1.num_reads::cpu.inst               1                       # Number of read requests responded to by this memory
system.mem_ctrls1.num_reads::cpu.data               1                       # Number of read requests responded to by this memory
system.mem_ctrls1.num_reads::switch_cpus.inst          263                       # Number of read requests responded to by this memory
system.mem_ctrls1.num_reads::switch_cpus.data        38398                       # Number of read requests responded to by this memory
system.mem_ctrls1.num_reads::switch_cpus_1.inst           78                       # Number of read requests responded to by this memory
system.mem_ctrls1.num_reads::switch_cpus_1.data        31863                       # Number of read requests responded to by this memory
system.mem_ctrls1.num_reads::total              70604                       # Number of read requests responded to by this memory
system.mem_ctrls1.num_writes::writebacks        36834                       # Number of write requests responded to by this memory
system.mem_ctrls1.num_writes::total             36834                       # Number of write requests responded to by this memory
system.mem_ctrls1.bw_read::cpu.inst                58                       # Total read bandwidth from this memory (bytes/s)
system.mem_ctrls1.bw_read::cpu.data                58                       # Total read bandwidth from this memory (bytes/s)
system.mem_ctrls1.bw_read::switch_cpus.inst        15381                       # Total read bandwidth from this memory (bytes/s)
system.mem_ctrls1.bw_read::switch_cpus.data      2245590                       # Total read bandwidth from this memory (bytes/s)
system.mem_ctrls1.bw_read::switch_cpus_1.inst         4562                       # Total read bandwidth from this memory (bytes/s)
system.mem_ctrls1.bw_read::switch_cpus_1.data      1863410                       # Total read bandwidth from this memory (bytes/s)
system.mem_ctrls1.bw_read::total              4129059                       # Total read bandwidth from this memory (bytes/s)
system.mem_ctrls1.bw_inst_read::cpu.inst           58                       # Instruction read bandwidth from this memory (bytes/s)
system.mem_ctrls1.bw_inst_read::switch_cpus.inst        15381                       # Instruction read bandwidth from this memory (bytes/s)
system.mem_ctrls1.bw_inst_read::switch_cpus_1.inst         4562                       # Instruction read bandwidth from this memory (bytes/s)
system.mem_ctrls1.bw_inst_read::total           20001                       # Instruction read bandwidth from this memory (bytes/s)
system.mem_ctrls1.bw_write::writebacks        2154124                       # Write bandwidth from this memory (bytes/s)
system.mem_ctrls1.bw_write::total             2154124                       # Write bandwidth from this memory (bytes/s)
system.mem_ctrls1.bw_total::writebacks        2154124                       # Total bandwidth to/from this memory (bytes/s)
system.mem_ctrls1.bw_total::cpu.inst               58                       # Total bandwidth to/from this memory (bytes/s)
system.mem_ctrls1.bw_total::cpu.data               58                       # Total bandwidth to/from this memory (bytes/s)
system.mem_ctrls1.bw_total::switch_cpus.inst        15381                       # Total bandwidth to/from this memory (bytes/s)
system.mem_ctrls1.bw_total::switch_cpus.data      2245590                       # Total bandwidth to/from this memory (bytes/s)
system.mem_ctrls1.bw_total::switch_cpus_1.inst         4562                       # Total bandwidth to/from this memory (bytes/s)
system.mem_ctrls1.bw_total::switch_cpus_1.data      1863410                       # Total bandwidth to/from this memory (bytes/s)
system.mem_ctrls1.bw_total::total             6283183                       # Total bandwidth to/from this memory (bytes/s)
system.mem_ctrls1.readReqs                      70604                       # Number of read requests accepted
system.mem_ctrls1.writeReqs                     36834                       # Number of write requests accepted
system.mem_ctrls1.readBursts                    70604                       # Number of DRAM read bursts, including those serviced by the write queue
system.mem_ctrls1.writeBursts                   36834                       # Number of DRAM write bursts, including those merged in the write queue
system.mem_ctrls1.bytesReadDRAM               4516160                       # Total number of bytes read from DRAM
system.mem_ctrls1.bytesReadWrQ                   2496                       # Total number of bytes read from write queue
system.mem_ctrls1.bytesWritten                2355392                       # Total number of bytes written to DRAM
system.mem_ctrls1.bytesReadSys                4518656                       # Total read bytes from the system interface side
system.mem_ctrls1.bytesWrittenSys             2357376                       # Total written bytes from the system interface side
system.mem_ctrls1.servicedByWrQ                    39                       # Number of DRAM read bursts serviced by the write queue
system.mem_ctrls1.mergedWrBursts                    0                       # Number of DRAM write bursts merged with an existing one
system.mem_ctrls1.neitherReadNorWriteReqs            0                       # Number of requests that are neither read nor write
system.mem_ctrls1.perBankRdBursts::0             4441                       # Per bank write bursts
system.mem_ctrls1.perBankRdBursts::1             3725                       # Per bank write bursts
system.mem_ctrls1.perBankRdBursts::2             4102                       # Per bank write bursts
system.mem_ctrls1.perBankRdBursts::3             5149                       # Per bank write bursts
system.mem_ctrls1.perBankRdBursts::4             5059                       # Per bank write bursts
system.mem_ctrls1.perBankRdBursts::5             4427                       # Per bank write bursts
system.mem_ctrls1.perBankRdBursts::6             4031                       # Per bank write bursts
system.mem_ctrls1.perBankRdBursts::7             4559                       # Per bank write bursts
system.mem_ctrls1.perBankRdBursts::8             4398                       # Per bank write bursts
system.mem_ctrls1.perBankRdBursts::9             3875                       # Per bank write bursts
system.mem_ctrls1.perBankRdBursts::10            4436                       # Per bank write bursts
system.mem_ctrls1.perBankRdBursts::11            4736                       # Per bank write bursts
system.mem_ctrls1.perBankRdBursts::12            4918                       # Per bank write bursts
system.mem_ctrls1.perBankRdBursts::13            4269                       # Per bank write bursts
system.mem_ctrls1.perBankRdBursts::14            4080                       # Per bank write bursts
system.mem_ctrls1.perBankRdBursts::15            4360                       # Per bank write bursts
system.mem_ctrls1.perBankWrBursts::0             2336                       # Per bank write bursts
system.mem_ctrls1.perBankWrBursts::1             1582                       # Per bank write bursts
system.mem_ctrls1.perBankWrBursts::2             2078                       # Per bank write bursts
system.mem_ctrls1.perBankWrBursts::3             2918                       # Per bank write bursts
system.mem_ctrls1.perBankWrBursts::4             3028                       # Per bank write bursts
system.mem_ctrls1.perBankWrBursts::5             2419                       # Per bank write bursts
system.mem_ctrls1.perBankWrBursts::6             1836                       # Per bank write bursts
system.mem_ctrls1.perBankWrBursts::7             2424                       # Per bank write bursts
system.mem_ctrls1.perBankWrBursts::8             2270                       # Per bank write bursts
system.mem_ctrls1.perBankWrBursts::9             1788                       # Per bank write bursts
system.mem_ctrls1.perBankWrBursts::10            2241                       # Per bank write bursts
system.mem_ctrls1.perBankWrBursts::11            2723                       # Per bank write bursts
system.mem_ctrls1.perBankWrBursts::12            2746                       # Per bank write bursts
system.mem_ctrls1.perBankWrBursts::13            2097                       # Per bank write bursts
system.mem_ctrls1.perBankWrBursts::14            1991                       # Per bank write bursts
system.mem_ctrls1.perBankWrBursts::15            2326                       # Per bank write bursts
system.mem_ctrls1.numRdRetry                        0                       # Number of times read queue was full causing retry
system.mem_ctrls1.numWrRetry                        0                       # Number of times write queue was full causing retry
system.mem_ctrls1.totGap                 1094354094123                       # Total gap between requests
system.mem_ctrls1.readPktSize::0                    0                       # Read request sizes (log2)
system.mem_ctrls1.readPktSize::1                    0                       # Read request sizes (log2)
system.mem_ctrls1.readPktSize::2                    0                       # Read request sizes (log2)
system.mem_ctrls1.readPktSize::3                    0                       # Read request sizes (log2)
system.mem_ctrls1.readPktSize::4                    0                       # Read request sizes (log2)
system.mem_ctrls1.readPktSize::5                    0                       # Read request sizes (log2)
system.mem_ctrls1.readPktSize::6                70604                       # Read request sizes (log2)
system.mem_ctrls1.writePktSize::0                   0                       # Write request sizes (log2)
system.mem_ctrls1.writePktSize::1                   0                       # Write request sizes (log2)
system.mem_ctrls1.writePktSize::2                   0                       # Write request sizes (log2)
system.mem_ctrls1.writePktSize::3                   0                       # Write request sizes (log2)
system.mem_ctrls1.writePktSize::4                   0                       # Write request sizes (log2)
system.mem_ctrls1.writePktSize::5                   0                       # Write request sizes (log2)
system.mem_ctrls1.writePktSize::6               36834                       # Write request sizes (log2)
system.mem_ctrls1.rdQLenPdf::0                  65768                       # What read queue length does an incoming req see
system.mem_ctrls1.rdQLenPdf::1                   4599                       # What read queue length does an incoming req see
system.mem_ctrls1.rdQLenPdf::2                    197                       # What read queue length does an incoming req see
system.mem_ctrls1.rdQLenPdf::3                      1                       # What read queue length does an incoming req see
system.mem_ctrls1.rdQLenPdf::4                      0                       # What read queue length does an incoming req see
system.mem_ctrls1.rdQLenPdf::5                      0                       # What read queue length does an incoming req see
system.mem_ctrls1.rdQLenPdf::6                      0                       # What read queue length does an incoming req see
system.mem_ctrls1.rdQLenPdf::7                      0                       # What read queue length does an incoming req see
system.mem_ctrls1.rdQLenPdf::8                      0                       # What read queue length does an incoming req see
system.mem_ctrls1.rdQLenPdf::9                      0                       # What read queue length does an incoming req see
system.mem_ctrls1.rdQLenPdf::10                     0                       # What read queue length does an incoming req see
system.mem_ctrls1.rdQLenPdf::11                     0                       # What read queue length does an incoming req see
system.mem_ctrls1.rdQLenPdf::12                     0                       # What read queue length does an incoming req see
system.mem_ctrls1.rdQLenPdf::13                     0                       # What read queue length does an incoming req see
system.mem_ctrls1.rdQLenPdf::14                     0                       # What read queue length does an incoming req see
system.mem_ctrls1.rdQLenPdf::15                     0                       # What read queue length does an incoming req see
system.mem_ctrls1.rdQLenPdf::16                     0                       # What read queue length does an incoming req see
system.mem_ctrls1.rdQLenPdf::17                     0                       # What read queue length does an incoming req see
system.mem_ctrls1.rdQLenPdf::18                     0                       # What read queue length does an incoming req see
system.mem_ctrls1.rdQLenPdf::19                     0                       # What read queue length does an incoming req see
system.mem_ctrls1.rdQLenPdf::20                     0                       # What read queue length does an incoming req see
system.mem_ctrls1.rdQLenPdf::21                     0                       # What read queue length does an incoming req see
system.mem_ctrls1.rdQLenPdf::22                     0                       # What read queue length does an incoming req see
system.mem_ctrls1.rdQLenPdf::23                     0                       # What read queue length does an incoming req see
system.mem_ctrls1.rdQLenPdf::24                     0                       # What read queue length does an incoming req see
system.mem_ctrls1.rdQLenPdf::25                     0                       # What read queue length does an incoming req see
system.mem_ctrls1.rdQLenPdf::26                     0                       # What read queue length does an incoming req see
system.mem_ctrls1.rdQLenPdf::27                     0                       # What read queue length does an incoming req see
system.mem_ctrls1.rdQLenPdf::28                     0                       # What read queue length does an incoming req see
system.mem_ctrls1.rdQLenPdf::29                     0                       # What read queue length does an incoming req see
system.mem_ctrls1.rdQLenPdf::30                     0                       # What read queue length does an incoming req see
system.mem_ctrls1.rdQLenPdf::31                     0                       # What read queue length does an incoming req see
system.mem_ctrls1.wrQLenPdf::0                      2                       # What write queue length does an incoming req see
system.mem_ctrls1.wrQLenPdf::1                      2                       # What write queue length does an incoming req see
system.mem_ctrls1.wrQLenPdf::2                      2                       # What write queue length does an incoming req see
system.mem_ctrls1.wrQLenPdf::3                      2                       # What write queue length does an incoming req see
system.mem_ctrls1.wrQLenPdf::4                      2                       # What write queue length does an incoming req see
system.mem_ctrls1.wrQLenPdf::5                      2                       # What write queue length does an incoming req see
system.mem_ctrls1.wrQLenPdf::6                      2                       # What write queue length does an incoming req see
system.mem_ctrls1.wrQLenPdf::7                      2                       # What write queue length does an incoming req see
system.mem_ctrls1.wrQLenPdf::8                      2                       # What write queue length does an incoming req see
system.mem_ctrls1.wrQLenPdf::9                      2                       # What write queue length does an incoming req see
system.mem_ctrls1.wrQLenPdf::10                     2                       # What write queue length does an incoming req see
system.mem_ctrls1.wrQLenPdf::11                     2                       # What write queue length does an incoming req see
system.mem_ctrls1.wrQLenPdf::12                     2                       # What write queue length does an incoming req see
system.mem_ctrls1.wrQLenPdf::13                     2                       # What write queue length does an incoming req see
system.mem_ctrls1.wrQLenPdf::14                     2                       # What write queue length does an incoming req see
system.mem_ctrls1.wrQLenPdf::15                  1868                       # What write queue length does an incoming req see
system.mem_ctrls1.wrQLenPdf::16                  1936                       # What write queue length does an incoming req see
system.mem_ctrls1.wrQLenPdf::17                  2039                       # What write queue length does an incoming req see
system.mem_ctrls1.wrQLenPdf::18                  2051                       # What write queue length does an incoming req see
system.mem_ctrls1.wrQLenPdf::19                  2060                       # What write queue length does an incoming req see
system.mem_ctrls1.wrQLenPdf::20                  2065                       # What write queue length does an incoming req see
system.mem_ctrls1.wrQLenPdf::21                  2072                       # What write queue length does an incoming req see
system.mem_ctrls1.wrQLenPdf::22                  2085                       # What write queue length does an incoming req see
system.mem_ctrls1.wrQLenPdf::23                  2093                       # What write queue length does an incoming req see
system.mem_ctrls1.wrQLenPdf::24                  2077                       # What write queue length does an incoming req see
system.mem_ctrls1.wrQLenPdf::25                  2067                       # What write queue length does an incoming req see
system.mem_ctrls1.wrQLenPdf::26                  2054                       # What write queue length does an incoming req see
system.mem_ctrls1.wrQLenPdf::27                  2047                       # What write queue length does an incoming req see
system.mem_ctrls1.wrQLenPdf::28                  2046                       # What write queue length does an incoming req see
system.mem_ctrls1.wrQLenPdf::29                  2054                       # What write queue length does an incoming req see
system.mem_ctrls1.wrQLenPdf::30                  2091                       # What write queue length does an incoming req see
system.mem_ctrls1.wrQLenPdf::31                  2035                       # What write queue length does an incoming req see
system.mem_ctrls1.wrQLenPdf::32                  2033                       # What write queue length does an incoming req see
system.mem_ctrls1.wrQLenPdf::33                    19                       # What write queue length does an incoming req see
system.mem_ctrls1.wrQLenPdf::34                     7                       # What write queue length does an incoming req see
system.mem_ctrls1.wrQLenPdf::35                     2                       # What write queue length does an incoming req see
system.mem_ctrls1.wrQLenPdf::36                     2                       # What write queue length does an incoming req see
system.mem_ctrls1.wrQLenPdf::37                     1                       # What write queue length does an incoming req see
system.mem_ctrls1.wrQLenPdf::38                     0                       # What write queue length does an incoming req see
system.mem_ctrls1.wrQLenPdf::39                     0                       # What write queue length does an incoming req see
system.mem_ctrls1.wrQLenPdf::40                     0                       # What write queue length does an incoming req see
system.mem_ctrls1.wrQLenPdf::41                     0                       # What write queue length does an incoming req see
system.mem_ctrls1.wrQLenPdf::42                     0                       # What write queue length does an incoming req see
system.mem_ctrls1.wrQLenPdf::43                     0                       # What write queue length does an incoming req see
system.mem_ctrls1.wrQLenPdf::44                     0                       # What write queue length does an incoming req see
system.mem_ctrls1.wrQLenPdf::45                     0                       # What write queue length does an incoming req see
system.mem_ctrls1.wrQLenPdf::46                     0                       # What write queue length does an incoming req see
system.mem_ctrls1.wrQLenPdf::47                     0                       # What write queue length does an incoming req see
system.mem_ctrls1.wrQLenPdf::48                     0                       # What write queue length does an incoming req see
system.mem_ctrls1.wrQLenPdf::49                     0                       # What write queue length does an incoming req see
system.mem_ctrls1.wrQLenPdf::50                     0                       # What write queue length does an incoming req see
system.mem_ctrls1.wrQLenPdf::51                     0                       # What write queue length does an incoming req see
system.mem_ctrls1.wrQLenPdf::52                     0                       # What write queue length does an incoming req see
system.mem_ctrls1.wrQLenPdf::53                     0                       # What write queue length does an incoming req see
system.mem_ctrls1.wrQLenPdf::54                     0                       # What write queue length does an incoming req see
system.mem_ctrls1.wrQLenPdf::55                     0                       # What write queue length does an incoming req see
system.mem_ctrls1.wrQLenPdf::56                     0                       # What write queue length does an incoming req see
system.mem_ctrls1.wrQLenPdf::57                     0                       # What write queue length does an incoming req see
system.mem_ctrls1.wrQLenPdf::58                     0                       # What write queue length does an incoming req see
system.mem_ctrls1.wrQLenPdf::59                     0                       # What write queue length does an incoming req see
system.mem_ctrls1.wrQLenPdf::60                     0                       # What write queue length does an incoming req see
system.mem_ctrls1.wrQLenPdf::61                     0                       # What write queue length does an incoming req see
system.mem_ctrls1.wrQLenPdf::62                     0                       # What write queue length does an incoming req see
system.mem_ctrls1.wrQLenPdf::63                     0                       # What write queue length does an incoming req see
system.mem_ctrls1.bytesPerActivate::samples        52858                       # Bytes accessed per row activation
system.mem_ctrls1.bytesPerActivate::mean   130.000227                       # Bytes accessed per row activation
system.mem_ctrls1.bytesPerActivate::gmean   108.012978                       # Bytes accessed per row activation
system.mem_ctrls1.bytesPerActivate::stdev   101.072535                       # Bytes accessed per row activation
system.mem_ctrls1.bytesPerActivate::64-127        23568     44.59%     44.59% # Bytes accessed per row activation
system.mem_ctrls1.bytesPerActivate::128-191        18693     35.36%     79.95% # Bytes accessed per row activation
system.mem_ctrls1.bytesPerActivate::192-255         5966     11.29%     91.24% # Bytes accessed per row activation
system.mem_ctrls1.bytesPerActivate::256-319         1404      2.66%     93.89% # Bytes accessed per row activation
system.mem_ctrls1.bytesPerActivate::320-383          853      1.61%     95.51% # Bytes accessed per row activation
system.mem_ctrls1.bytesPerActivate::384-447          692      1.31%     96.82% # Bytes accessed per row activation
system.mem_ctrls1.bytesPerActivate::448-511          531      1.00%     97.82% # Bytes accessed per row activation
system.mem_ctrls1.bytesPerActivate::512-575          416      0.79%     98.61% # Bytes accessed per row activation
system.mem_ctrls1.bytesPerActivate::576-639          312      0.59%     99.20% # Bytes accessed per row activation
system.mem_ctrls1.bytesPerActivate::640-703          209      0.40%     99.60% # Bytes accessed per row activation
system.mem_ctrls1.bytesPerActivate::704-767          100      0.19%     99.78% # Bytes accessed per row activation
system.mem_ctrls1.bytesPerActivate::768-831           65      0.12%     99.91% # Bytes accessed per row activation
system.mem_ctrls1.bytesPerActivate::832-895           30      0.06%     99.96% # Bytes accessed per row activation
system.mem_ctrls1.bytesPerActivate::896-959           15      0.03%     99.99% # Bytes accessed per row activation
system.mem_ctrls1.bytesPerActivate::960-1023            4      0.01%    100.00% # Bytes accessed per row activation
system.mem_ctrls1.bytesPerActivate::total        52858                       # Bytes accessed per row activation
system.mem_ctrls1.rdPerTurnAround::samples         2034                       # Reads before turning the bus around for writes
system.mem_ctrls1.rdPerTurnAround::mean     34.683382                       # Reads before turning the bus around for writes
system.mem_ctrls1.rdPerTurnAround::stdev   707.987761                       # Reads before turning the bus around for writes
system.mem_ctrls1.rdPerTurnAround::0-1023         2033     99.95%     99.95% # Reads before turning the bus around for writes
system.mem_ctrls1.rdPerTurnAround::31744-32767            1      0.05%    100.00% # Reads before turning the bus around for writes
system.mem_ctrls1.rdPerTurnAround::total         2034                       # Reads before turning the bus around for writes
system.mem_ctrls1.wrPerTurnAround::samples         2034                       # Writes before turning the bus around for reads
system.mem_ctrls1.wrPerTurnAround::mean     18.093904                       # Writes before turning the bus around for reads
system.mem_ctrls1.wrPerTurnAround::gmean    18.076237                       # Writes before turning the bus around for reads
system.mem_ctrls1.wrPerTurnAround::stdev     0.808545                       # Writes before turning the bus around for reads
system.mem_ctrls1.wrPerTurnAround::16             122      6.00%      6.00% # Writes before turning the bus around for reads
system.mem_ctrls1.wrPerTurnAround::17              37      1.82%      7.82% # Writes before turning the bus around for reads
system.mem_ctrls1.wrPerTurnAround::18            1503     73.89%     81.71% # Writes before turning the bus around for reads
system.mem_ctrls1.wrPerTurnAround::19             299     14.70%     96.41% # Writes before turning the bus around for reads
system.mem_ctrls1.wrPerTurnAround::20              62      3.05%     99.46% # Writes before turning the bus around for reads
system.mem_ctrls1.wrPerTurnAround::21               5      0.25%     99.71% # Writes before turning the bus around for reads
system.mem_ctrls1.wrPerTurnAround::22               3      0.15%     99.85% # Writes before turning the bus around for reads
system.mem_ctrls1.wrPerTurnAround::23               1      0.05%     99.90% # Writes before turning the bus around for reads
system.mem_ctrls1.wrPerTurnAround::24               1      0.05%     99.95% # Writes before turning the bus around for reads
system.mem_ctrls1.wrPerTurnAround::29               1      0.05%    100.00% # Writes before turning the bus around for reads
system.mem_ctrls1.wrPerTurnAround::total         2034                       # Writes before turning the bus around for reads
system.mem_ctrls1.totQLat                  1408721690                       # Total ticks spent queuing
system.mem_ctrls1.totMemAccLat             2731815440                       # Total ticks spent from burst creation until serviced by the DRAM
system.mem_ctrls1.totBusLat                 352825000                       # Total ticks spent in databus transfers
system.mem_ctrls1.avgQLat                    19963.46                       # Average queueing delay per DRAM burst
system.mem_ctrls1.avgBusLat                   5000.00                       # Average bus latency per DRAM burst
system.mem_ctrls1.avgMemAccLat               38713.46                       # Average memory access latency per DRAM burst
system.mem_ctrls1.avgRdBW                        4.13                       # Average DRAM read bandwidth in MiByte/s
system.mem_ctrls1.avgWrBW                        2.15                       # Average achieved write bandwidth in MiByte/s
system.mem_ctrls1.avgRdBWSys                     4.13                       # Average system read bandwidth in MiByte/s
system.mem_ctrls1.avgWrBWSys                     2.15                       # Average system write bandwidth in MiByte/s
system.mem_ctrls1.peakBW                     12800.00                       # Theoretical peak bandwidth in MiByte/s
system.mem_ctrls1.busUtil                        0.05                       # Data bus utilization in percentage
system.mem_ctrls1.busUtilRead                    0.03                       # Data bus utilization in percentage for reads
system.mem_ctrls1.busUtilWrite                   0.02                       # Data bus utilization in percentage for writes
system.mem_ctrls1.avgRdQLen                      1.00                       # Average read queue length when enqueuing
system.mem_ctrls1.avgWrQLen                      0.90                       # Average write queue length when enqueuing
system.mem_ctrls1.readRowHits                   43605                       # Number of row buffer hits during reads
system.mem_ctrls1.writeRowHits                  10905                       # Number of row buffer hits during writes
system.mem_ctrls1.readRowHitRate                61.79                       # Row buffer hit rate for reads
system.mem_ctrls1.writeRowHitRate               29.61                       # Row buffer hit rate for writes
system.mem_ctrls1.avgGap                  10185912.75                       # Average gap between requests
system.mem_ctrls1.pageHitRate                   50.75                       # Row buffer hit rate, read and write combined
system.mem_ctrls1_0.actEnergy               189224280                       # Energy for activate commands per rank (pJ)
system.mem_ctrls1_0.preEnergy               100575090                       # Energy for precharge commands per rank (pJ)
system.mem_ctrls1_0.readEnergy              253420020                       # Energy for read commands per rank (pJ)
system.mem_ctrls1_0.writeEnergy              97201620                       # Energy for write commands per rank (pJ)
system.mem_ctrls1_0.refreshEnergy        5332616640.000001                       # Energy for refresh commands per rank (pJ)
system.mem_ctrls1_0.actBackEnergy          2513279340                       # Energy for active background per rank (pJ)
system.mem_ctrls1_0.preBackEnergy           144097440                       # Energy for precharge background per rank (pJ)
system.mem_ctrls1_0.actPowerDownEnergy    20545523460                       # Energy for active power-down per rank (pJ)
system.mem_ctrls1_0.prePowerDownEnergy     5442564000                       # Energy for precharge power-down per rank (pJ)
system.mem_ctrls1_0.selfRefreshEnergy    247203103185                       # Energy for self refresh per rank (pJ)
system.mem_ctrls1_0.totalEnergy          281822299545                       # Total energy per rank (pJ)
system.mem_ctrls1_0.averagePower           257.523691                       # Core power per rank (mW)
system.mem_ctrls1_0.totalIdleTime        1088418813772                       # Total Idle time Per DRAM Rank
system.mem_ctrls1_0.memoryStateTime::IDLE    141438859                       # Time in different power states
system.mem_ctrls1_0.memoryStateTime::REF   2257848000                       # Time in different power states
system.mem_ctrls1_0.memoryStateTime::SREF 1029237159037                       # Time in different power states
system.mem_ctrls1_0.memoryStateTime::PRE_PDN  14174527310                       # Time in different power states
system.mem_ctrls1_0.memoryStateTime::ACT   3487818007                       # Time in different power states
system.mem_ctrls1_0.memoryStateTime::ACT_PDN  45056054824                       # Time in different power states
system.mem_ctrls1_1.actEnergy               188181840                       # Energy for activate commands per rank (pJ)
system.mem_ctrls1_1.preEnergy               100021020                       # Energy for precharge commands per rank (pJ)
system.mem_ctrls1_1.readEnergy              250414080                       # Energy for read commands per rank (pJ)
system.mem_ctrls1_1.writeEnergy              94910040                       # Energy for write commands per rank (pJ)
system.mem_ctrls1_1.refreshEnergy        5230586400.000001                       # Energy for refresh commands per rank (pJ)
system.mem_ctrls1_1.actBackEnergy          2542036410                       # Energy for active background per rank (pJ)
system.mem_ctrls1_1.preBackEnergy           140826720                       # Energy for precharge background per rank (pJ)
system.mem_ctrls1_1.actPowerDownEnergy    20271109500                       # Energy for active power-down per rank (pJ)
system.mem_ctrls1_1.prePowerDownEnergy     5318225760                       # Energy for precharge power-down per rank (pJ)
system.mem_ctrls1_1.selfRefreshEnergy    247379946735                       # Energy for self refresh per rank (pJ)
system.mem_ctrls1_1.totalEnergy          281516516925                       # Total energy per rank (pJ)
system.mem_ctrls1_1.averagePower           257.244273                       # Core power per rank (mW)
system.mem_ctrls1_1.totalIdleTime        1088360167015                       # Total Idle time Per DRAM Rank
system.mem_ctrls1_1.memoryStateTime::IDLE    134894406                       # Time in different power states
system.mem_ctrls1_1.memoryStateTime::REF   2214334000                       # Time in different power states
system.mem_ctrls1_1.memoryStateTime::SREF 1030109162037                       # Time in different power states
system.mem_ctrls1_1.memoryStateTime::PRE_PDN  13848072913                       # Time in different power states
system.mem_ctrls1_1.memoryStateTime::ACT   3595704703                       # Time in different power states
system.mem_ctrls1_1.memoryStateTime::ACT_PDN  44452677978                       # Time in different power states
system.pwrStateResidencyTicks::UNDEFINED 111420573600294                       # Cumulative time (in ticks) in various power states
system.cpu.branchPred.lookups                      16                       # Number of BP lookups
system.cpu.branchPred.condPredicted                16                       # Number of conditional branches predicted
system.cpu.branchPred.condIncorrect                13                       # Number of conditional branches incorrect
system.cpu.branchPred.BTBLookups                    0                       # Number of BTB lookups
system.cpu.branchPred.BTBHits                       0                       # Number of BTB hits
system.cpu.branchPred.BTBCorrect                    0                       # Number of correct BTB predictions (this stat may not work properly.
system.cpu.branchPred.BTBHitPct                   nan                       # BTB Hit Percentage
system.cpu.branchPred.usedRAS                       0                       # Number of times the RAS was used to get a target.
system.cpu.branchPred.RASInCorrect                  0                       # Number of incorrect RAS predictions.
system.cpu.branchPred.indirectLookups               0                       # Number of indirect predictor lookups.
system.cpu.branchPred.indirectHits                  0                       # Number of indirect target hits.
system.cpu.branchPred.indirectMisses                0                       # Number of indirect misses.
system.cpu.branchPredindirectMispredicted            0                       # Number of mispredicted indirect branches.
system.cpu_voltage_domain.voltage                   1                       # Voltage in Volts
system.cpu_clk_domain.clock                       333                       # Clock period in ticks
system.cpu.dtb.fetch_hits                           0                       # ITB hits
system.cpu.dtb.fetch_misses                         0                       # ITB misses
system.cpu.dtb.fetch_acv                            0                       # ITB acv
system.cpu.dtb.fetch_accesses                       0                       # ITB accesses
system.cpu.dtb.read_hits                           28                       # DTB read hits
system.cpu.dtb.read_misses                          0                       # DTB read misses
system.cpu.dtb.read_acv                             0                       # DTB read access violations
system.cpu.dtb.read_accesses                       28                       # DTB read accesses
system.cpu.dtb.write_hits                          14                       # DTB write hits
system.cpu.dtb.write_misses                         0                       # DTB write misses
system.cpu.dtb.write_acv                            0                       # DTB write access violations
system.cpu.dtb.write_accesses                      14                       # DTB write accesses
system.cpu.dtb.data_hits                           42                       # DTB hits
system.cpu.dtb.data_misses                          0                       # DTB misses
system.cpu.dtb.data_acv                             0                       # DTB access violations
system.cpu.dtb.data_accesses                       42                       # DTB accesses
system.cpu.itb.fetch_hits                          30                       # ITB hits
system.cpu.itb.fetch_misses                         0                       # ITB misses
system.cpu.itb.fetch_acv                            0                       # ITB acv
system.cpu.itb.fetch_accesses                      30                       # ITB accesses
system.cpu.itb.read_hits                            0                       # DTB read hits
system.cpu.itb.read_misses                          0                       # DTB read misses
system.cpu.itb.read_acv                             0                       # DTB read access violations
system.cpu.itb.read_accesses                        0                       # DTB read accesses
system.cpu.itb.write_hits                           0                       # DTB write hits
system.cpu.itb.write_misses                         0                       # DTB write misses
system.cpu.itb.write_acv                            0                       # DTB write access violations
system.cpu.itb.write_accesses                       0                       # DTB write accesses
system.cpu.itb.data_hits                            0                       # DTB hits
system.cpu.itb.data_misses                          0                       # DTB misses
system.cpu.itb.data_acv                             0                       # DTB access violations
system.cpu.itb.data_accesses                        0                       # DTB accesses
system.cpu.workload.num_syscalls                    6                       # Number of system calls
system.cpu.pwrStateResidencyTicks::ON    1094354846037                       # Cumulative time (in ticks) in various power states
system.cpu.numCycles                             1015                       # number of cpu cycles simulated
system.cpu.numWorkItemsStarted                      0                       # number of work items this cpu started
system.cpu.numWorkItemsCompleted                    0                       # number of work items this cpu completed
system.cpu.fetch.icacheStallCycles                176                       # Number of cycles fetch is stalled on an Icache miss
system.cpu.fetch.Insts                            176                       # Number of instructions fetch has processed
system.cpu.fetch.Branches                          16                       # Number of branches that fetch encountered
system.cpu.fetch.Cycles                            29                       # Number of cycles fetch has run and was not squashing or blocked
system.cpu.fetch.SquashCycles                      29                       # Number of cycles fetch has spent squashing
system.cpu.fetch.PendingDrainCycles                23                       # Number of cycles fetch has spent waiting on pipes to drain
system.cpu.fetch.CacheLines                        30                       # Number of cache lines fetched
system.cpu.fetch.IcacheSquashes                    15                       # Number of outstanding Icache misses that were squashed
system.cpu.fetch.rateDist::samples                242                       # Number of instructions fetched each cycle (Total)
system.cpu.fetch.rateDist::mean              0.727273                       # Number of instructions fetched each cycle (Total)
system.cpu.fetch.rateDist::stdev             2.093261                       # Number of instructions fetched each cycle (Total)
system.cpu.fetch.rateDist::underflows               0      0.00%      0.00% # Number of instructions fetched each cycle (Total)
[...]
system.switch_cpus_1.iq.int_inst_queue_writes    202641749                       # Number of integer instruction queue writes
system.switch_cpus_1.iq.int_inst_queue_wakeup_accesses    200869088                       # Number of integer instruction queue wakeup accesses
system.switch_cpus_1.iq.fp_inst_queue_reads        21689                       # Number of floating instruction queue reads
system.switch_cpus_1.iq.fp_inst_queue_writes        21383                       # Number of floating instruction queue writes
system.switch_cpus_1.iq.fp_inst_queue_wakeup_accesses         9532                       # Number of floating instruction queue wakeup accesses
system.switch_cpus_1.iq.int_alu_accesses    204535145                       # Number of integer alu accesses
system.switch_cpus_1.iq.fp_alu_accesses         10981                       # Number of floating point alu accesses
system.switch_cpus_1.iew.lsq.thread0.forwLoads      2211753                       # Number of loads that had data forwarded from stores
system.switch_cpus_1.iew.lsq.thread0.invAddrLoads            0                       # Number of loads ignored due to an invalid address
system.switch_cpus_1.iew.lsq.thread0.squashedLoads       350761                       # Number of loads squashed
system.switch_cpus_1.iew.lsq.thread0.ignoredResponses          206                       # Number of memory responses ignored because the instruction is squashed
system.switch_cpus_1.iew.lsq.thread0.memOrderViolation         3513                       # Number of memory ordering violations
system.switch_cpus_1.iew.lsq.thread0.squashedStores       139567                       # Number of stores squashed
system.switch_cpus_1.iew.lsq.thread0.invAddrSwpfs            0                       # Number of software prefetches ignored due to an invalid address
system.switch_cpus_1.iew.lsq.thread0.blockedLoads            0                       # Number of blocked loads due to partial load-store forwarding
system.switch_cpus_1.iew.lsq.thread0.rescheduledLoads           39                       # Number of loads that were rescheduled
system.switch_cpus_1.iew.lsq.thread0.cacheBlocked       425211                       # Number of times an access to memory failed due to the cache being blocked
system.switch_cpus_1.iew.iewIdleCycles              0                       # Number of cycles IEW is idle
system.switch_cpus_1.iew.iewSquashCycles        36257                       # Number of cycles IEW is squashing
system.switch_cpus_1.iew.iewBlockCycles        532185                       # Number of cycles IEW is blocking
system.switch_cpus_1.iew.iewUnblockCycles      4006435                       # Number of cycles IEW is unblocking
system.switch_cpus_1.iew.iewDispatchedInsts    201463802                       # Number of instructions dispatched to IQ
system.switch_cpus_1.iew.iewDispSquashedInsts         1152                       # Number of squashed instructions skipped by dispatch
system.switch_cpus_1.iew.iewDispLoadInsts     53740561                       # Number of dispatched load instructions
system.switch_cpus_1.iew.iewDispStoreInsts     22318160                       # Number of dispatched store instructions
system.switch_cpus_1.iew.iewDispNonSpecInsts         1873                       # Number of dispatched non-speculative instructions
system.switch_cpus_1.iew.iewIQFullEvents         9827                       # Number of times the IQ has become full, causing a stall
system.switch_cpus_1.iew.iewLSQFullEvents      3982600                       # Number of times the LSQ has become full, causing a stall
system.switch_cpus_1.iew.memOrderViolationEvents         3513                       # Number of memory order violations
system.switch_cpus_1.iew.predictedTakenIncorrect        11674                       # Number of branches that were predicted taken incorrectly
system.switch_cpus_1.iew.predictedNotTakenIncorrect        16833                       # Number of branches that were predicted not taken incorrectly
system.switch_cpus_1.iew.branchMispredicts        28507                       # Number of branch mispredicts detected at execute
system.switch_cpus_1.iew.iewExecutedInsts    201359440                       # Number of executed instructions
system.switch_cpus_1.iew.iewExecLoadInsts     54078000                       # Number of load instructions executed
system.switch_cpus_1.iew.iewExecSquashedInsts        67101                       # Number of squashed instructions skipped in execute
system.switch_cpus_1.iew.exec_swp                   0                       # number of swp insts executed
system.switch_cpus_1.iew.exec_nop              133937                       # number of nop insts executed
system.switch_cpus_1.iew.exec_refs           76339620                       # number of memory reference insts executed
system.switch_cpus_1.iew.exec_branches        9159926                       # Number of branches executed
system.switch_cpus_1.iew.exec_stores         22261620                       # Number of stores executed
system.switch_cpus_1.iew.exec_rate           2.358205                       # Inst execution rate
system.switch_cpus_1.iew.wb_sent            200930686                       # cumulative count of insts sent to commit
system.switch_cpus_1.iew.wb_count           200878620                       # cumulative count of insts written-back
system.switch_cpus_1.iew.wb_producers       130017021                       # num instructions producing a value
system.switch_cpus_1.iew.wb_consumers       178499591                       # num instructions consuming a value
system.switch_cpus_1.iew.wb_rate             2.352574                       # insts written-back per cycle
system.switch_cpus_1.iew.wb_fanout           0.728388                       # average fanout of values written-back
system.switch_cpus_1.commit.commitSquashedInsts      1269348                       # The number of squashed insts skipped by commit
system.switch_cpus_1.commit.commitNonSpecStalls         2565                       # The number of times commit has been forced to stall to communicate backwards
system.switch_cpus_1.commit.branchMispredicts        27227                       # The number of times a branch was mispredicted
system.switch_cpus_1.commit.committed_per_cycle::samples     85122083                       # Number of insts commited each cycle
system.switch_cpus_1.commit.committed_per_cycle::mean     2.350784                       # Number of insts commited each cycle
system.switch_cpus_1.commit.committed_per_cycle::stdev     3.314319                       # Number of insts commited each cycle
system.switch_cpus_1.commit.committed_per_cycle::underflows            0      0.00%      0.00% # Number of insts commited each cycle
system.switch_cpus_1.commit.committed_per_cycle::0     45286047     53.20%     53.20% # Number of insts commited each cycle
system.switch_cpus_1.commit.committed_per_cycle::1     11504190     13.51%     66.72% # Number of insts commited each cycle
system.switch_cpus_1.commit.committed_per_cycle::2      2517060      2.96%     69.67% # Number of insts commited each cycle
system.switch_cpus_1.commit.committed_per_cycle::3      2935656      3.45%     73.12% # Number of insts commited each cycle
system.switch_cpus_1.commit.committed_per_cycle::4       423017      0.50%     73.62% # Number of insts commited each cycle
system.switch_cpus_1.commit.committed_per_cycle::5      1969744      2.31%     75.93% # Number of insts commited each cycle
system.switch_cpus_1.commit.committed_per_cycle::6       204914      0.24%     76.17% # Number of insts commited each cycle
system.switch_cpus_1.commit.committed_per_cycle::7       263580      0.31%     76.48% # Number of insts commited each cycle
system.switch_cpus_1.commit.committed_per_cycle::8     20017875     23.52%    100.00% # Number of insts commited each cycle
system.switch_cpus_1.commit.committed_per_cycle::overflows            0      0.00%    100.00% # Number of insts commited each cycle
system.switch_cpus_1.commit.committed_per_cycle::min_value            0                       # Number of insts commited each cycle
system.switch_cpus_1.commit.committed_per_cycle::max_value            8                       # Number of insts commited each cycle
system.switch_cpus_1.commit.committed_per_cycle::total     85122083                       # Number of insts commited each cycle
system.switch_cpus_1.commit.committedInsts    200103610                       # Number of instructions committed
system.switch_cpus_1.commit.committedOps    200103610                       # Number of ops (including micro ops) committed
system.switch_cpus_1.commit.swp_count               0                       # Number of s/w prefetches committed
system.switch_cpus_1.commit.refs             75568371                       # Number of memory references committed
system.switch_cpus_1.commit.loads            53389787                       # Number of loads committed
system.switch_cpus_1.commit.membars              1282                       # Number of memory barriers committed
system.switch_cpus_1.commit.branches          9081009                       # Number of branches committed
system.switch_cpus_1.commit.fp_insts             7063                       # Number of committed floating point instructions.
system.switch_cpus_1.commit.int_insts       199966042                       # Number of committed integer instructions.
system.switch_cpus_1.commit.function_calls        26169                       # Number of function calls committed.
system.switch_cpus_1.commit.op_class_0::No_OpClass       103604      0.05%      0.05% # Class of committed instruction
system.switch_cpus_1.commit.op_class_0::IntAlu    124425131     62.18%     62.23% # Class of committed instruction
system.switch_cpus_1.commit.op_class_0::IntMult           14      0.00%     62.23% # Class of committed instruction
system.switch_cpus_1.commit.op_class_0::IntDiv            0      0.00%     62.23% # Class of committed instruction
system.switch_cpus_1.commit.op_class_0::FloatAdd         3080      0.00%     62.23% # Class of committed instruction
system.switch_cpus_1.commit.op_class_0::FloatCmp          511      0.00%     62.23% # Class of committed instruction
system.switch_cpus_1.commit.op_class_0::FloatCvt          406      0.00%     62.23% # Class of committed instruction
system.switch_cpus_1.commit.op_class_0::FloatMult         1162      0.00%     62.23% # Class of committed instruction
system.switch_cpus_1.commit.op_class_0::FloatMultAcc            0      0.00%     62.23% # Class of committed instruction
system.switch_cpus_1.commit.op_class_0::FloatDiv           49      0.00%     62.23% # Class of committed instruction
system.switch_cpus_1.commit.op_class_0::FloatMisc            0      0.00%     62.23% # Class of committed instruction
system.switch_cpus_1.commit.op_class_0::FloatSqrt            0      0.00%     62.23% # Class of committed instruction
system.switch_cpus_1.commit.op_class_0::SimdAdd            0      0.00%     62.23% # Class of committed instruction
system.switch_cpus_1.commit.op_class_0::SimdAddAcc            0      0.00%     62.23% # Class of committed instruction
system.switch_cpus_1.commit.op_class_0::SimdAlu            0      0.00%     62.23% # Class of committed instruction
system.switch_cpus_1.commit.op_class_0::SimdCmp            0      0.00%     62.23% # Class of committed instruction
system.switch_cpus_1.commit.op_class_0::SimdCvt            0      0.00%     62.23% # Class of committed instruction
system.switch_cpus_1.commit.op_class_0::SimdMisc            0      0.00%     62.23% # Class of committed instruction
system.switch_cpus_1.commit.op_class_0::SimdMult            0      0.00%     62.23% # Class of committed instruction
system.switch_cpus_1.commit.op_class_0::SimdMultAcc            0      0.00%     62.23% # Class of committed instruction
system.switch_cpus_1.commit.op_class_0::SimdShift            0      0.00%     62.23% # Class of committed instruction
system.switch_cpus_1.commit.op_class_0::SimdShiftAcc            0      0.00%     62.23% # Class of committed instruction
system.switch_cpus_1.commit.op_class_0::SimdSqrt            0      0.00%     62.23% # Class of committed instruction
system.switch_cpus_1.commit.op_class_0::SimdFloatAdd            0      0.00%     62.23% # Class of committed instruction
system.switch_cpus_1.commit.op_class_0::SimdFloatAlu            0      0.00%     62.23% # Class of committed instruction
system.switch_cpus_1.commit.op_class_0::SimdFloatCmp            0      0.00%     62.23% # Class of committed instruction
system.switch_cpus_1.commit.op_class_0::SimdFloatCvt            0      0.00%     62.23% # Class of committed instruction
system.switch_cpus_1.commit.op_class_0::SimdFloatDiv            0      0.00%     62.23% # Class of committed instruction
system.switch_cpus_1.commit.op_class_0::SimdFloatMisc            0      0.00%     62.23% # Class of committed instruction
system.switch_cpus_1.commit.op_class_0::SimdFloatMult            0      0.00%     62.23% # Class of committed instruction
system.switch_cpus_1.commit.op_class_0::SimdFloatMultAcc            0      0.00%     62.23% # Class of committed instruction
system.switch_cpus_1.commit.op_class_0::SimdFloatSqrt            0      0.00%     62.23% # Class of committed instruction
system.switch_cpus_1.commit.op_class_0::MemRead     53389445     26.68%     88.92% # Class of committed instruction
system.switch_cpus_1.commit.op_class_0::MemWrite     22178353     11.08%    100.00% # Class of committed instruction
system.switch_cpus_1.commit.op_class_0::FloatMemRead         1624      0.00%    100.00% # Class of committed instruction
system.switch_cpus_1.commit.op_class_0::FloatMemWrite          231      0.00%    100.00% # Class of committed instruction
system.switch_cpus_1.commit.op_class_0::IprAccess            0      0.00%    100.00% # Class of committed instruction
system.switch_cpus_1.commit.op_class_0::InstPrefetch            0      0.00%    100.00% # Class of committed instruction
system.switch_cpus_1.commit.op_class_0::total    200103610                       # Class of committed instruction
system.switch_cpus_1.commit.bw_lim_events     20017875                       # number cycles where commit BW limit reached
system.switch_cpus_1.rob.rob_reads          266398035                       # The number of ROB reads
system.switch_cpus_1.rob.rob_writes         402932806                       # The number of ROB writes
system.switch_cpus_1.timesIdled                   935                       # Number of times that the entire CPU went into an idle state and unscheduled itself
system.switch_cpus_1.idleCycles                 80304                       # Total number of cycles that the CPU has spent unscheduled due to idling
system.switch_cpus_1.committedInsts         200000006                       # Number of Instructions Simulated
system.switch_cpus_1.committedOps           200000006                       # Number of Ops (including micro ops) Simulated
system.switch_cpus_1.cpi                     0.426934                       # CPI: Cycles Per Instruction
system.switch_cpus_1.cpi_total               0.426934                       # CPI: Total CPI of All Threads
system.switch_cpus_1.ipc                     2.342284                       # IPC: Instructions Per Cycle
system.switch_cpus_1.ipc_total               2.342284                       # IPC: Total IPC of All Threads
system.switch_cpus_1.int_regfile_reads      323291865                       # number of integer regfile reads
system.switch_cpus_1.int_regfile_writes     169528552                       # number of integer regfile writes
system.switch_cpus_1.fp_regfile_reads           12414                       # number of floating regfile reads
system.switch_cpus_1.fp_regfile_writes           8133                       # number of floating regfile writes
system.switch_cpus_1.misc_regfile_reads         13736                       # number of misc regfile reads
system.switch_cpus_1.misc_regfile_writes         2564                       # number of misc regfile writes
system.tol3bus.snoop_filter.tot_requests      5443186                       # Total number of requests made to the snoop filter.
system.tol3bus.snoop_filter.hit_single_requests      2719271                       # Number of requests hitting in the snoop filter with a single holder of the requested data.
system.tol3bus.snoop_filter.hit_multi_requests            0                       # Number of requests hitting in the snoop filter with multiple (>1) holders of the requested data.
system.tol3bus.snoop_filter.tot_snoops            915                       # Total number of snoops made to the snoop filter.
system.tol3bus.snoop_filter.hit_single_snoops          915                       # Number of snoops hitting in the snoop filter with a single holder of the requested data.
system.tol3bus.snoop_filter.hit_multi_snoops            0                       # Number of snoops hitting in the snoop filter with multiple (>1) holders of the requested data.
system.tol3bus.pwrStateResidencyTicks::UNDEFINED 111420573600294                       # Cumulative time (in ticks) in various power states
system.tol3bus.trans_dist::ReadResp            206241                       # Transaction distribution
system.tol3bus.trans_dist::WritebackDirty      2626123                       # Transaction distribution
system.tol3bus.trans_dist::CleanEvict          169111                       # Transaction distribution
system.tol3bus.trans_dist::ReadExReq          2517674                       # Transaction distribution
system.tol3bus.trans_dist::ReadExResp         2517674                       # Transaction distribution
system.tol3bus.trans_dist::ReadSharedReq       206241                       # Transaction distribution
system.tol3bus.pkt_count_system.cpu.l2.mem_side::system.l3.cpu_side      8167101                       # Packet count per connected master and slave (bytes)
system.tol3bus.pkt_size_system.cpu.l2.mem_side::system.l3.cpu_side    337675136                       # Cumulative packet size per connected master and slave (bytes)
system.tol3bus.snoops                           75963                       # Total snoops (count)
system.tol3bus.snoopTraffic                   4727296                       # Total snoop traffic (bytes)
system.tol3bus.snoop_fanout::samples          2799878                       # Request fanout histogram
system.tol3bus.snoop_fanout::mean            0.000327                       # Request fanout histogram
system.tol3bus.snoop_fanout::stdev           0.018075                       # Request fanout histogram
system.tol3bus.snoop_fanout::underflows             0      0.00%      0.00% # Request fanout histogram
system.tol3bus.snoop_fanout::0                2798963     99.97%     99.97% # Request fanout histogram
system.tol3bus.snoop_fanout::1                    915      0.03%    100.00% # Request fanout histogram
system.tol3bus.snoop_fanout::overflows              0      0.00%    100.00% # Request fanout histogram
system.tol3bus.snoop_fanout::min_value              0                       # Request fanout histogram
system.tol3bus.snoop_fanout::max_value              1                       # Request fanout histogram
system.tol3bus.snoop_fanout::total            2799878                       # Request fanout histogram
system.tol3bus.reqLayer0.occupancy         2662483185                       # Layer occupancy (ticks)
system.tol3bus.reqLayer0.utilization              0.2                       # Layer utilization (%)
system.tol3bus.respLayer0.occupancy        1814127390                       # Layer occupancy (ticks)
system.tol3bus.respLayer0.utilization             0.2                       # Layer utilization (%)

---------- End Simulation Statistics   ----------
