
---------- Begin Simulation Statistics ----------
sim_seconds                                  3.806037                       # Number of seconds simulated
sim_ticks                                3806036630523                       # Number of ticks simulated
final_tick                               304176257385210                       # Number of ticks from beginning of simulation (restored from checkpoints and never reset)
sim_freq                                 1000000000000                       # Frequency of simulated ticks
host_inst_rate                                  65375                       # Simulator instruction rate (inst/s)
host_op_rate                                    65375                       # Simulator op (including micro ops) rate (op/s)
host_tick_rate                              165879598                       # Simulator tick rate (ticks/s)
host_mem_usage                                2406544                       # Number of bytes of host memory used
host_seconds                                 22944.57                       # Real time elapsed on the host
sim_insts                                  1500000008                       # Number of instructions simulated
sim_ops                                    1500000008                       # Number of ops (including micro ops) simulated
system.voltage_domain.voltage                       1                       # Voltage in Volts
system.clk_domain.clock                          1000                       # Clock period in ticks
system.mem_ctrls0.pwrStateResidencyTicks::UNDEFINED 304176257385210                       # Cumulative time (in ticks) in various power states
system.mem_ctrls0.bytes_read::cpu.inst             64                       # Number of bytes read from this memory
system.mem_ctrls0.bytes_read::cpu.data             64                       # Number of bytes read from this memory
system.mem_ctrls0.bytes_read::switch_cpus.inst         3136                       # Number of bytes read from this memory
system.mem_ctrls0.bytes_read::switch_cpus.data    284990528                       # Number of bytes read from this memory
system.mem_ctrls0.bytes_read::switch_cpus_1.inst          896                       # Number of bytes read from this memory
system.mem_ctrls0.bytes_read::switch_cpus_1.data    157816576                       # Number of bytes read from this memory
system.mem_ctrls0.bytes_read::total         442811264                       # Number of bytes read from this memory
system.mem_ctrls0.bytes_inst_read::cpu.inst           64                       # Number of instructions bytes read from this memory
system.mem_ctrls0.bytes_inst_read::switch_cpus.inst         3136                       # Number of instructions bytes read from this memory
system.mem_ctrls0.bytes_inst_read::switch_cpus_1.inst          896                       # Number of instructions bytes read from this memory
system.mem_ctrls0.bytes_inst_read::total         4096                       # Number of instructions bytes read from this memory
system.mem_ctrls0.bytes_written::writebacks    205981888                       # Number of bytes written to this memory
system.mem_ctrls0.bytes_written::total      205981888                       # Number of bytes written to this memory
system.mem_ctrls0.num_reads::cpu.inst               1                       # Number of read requests responded to by this memory
system.mem_ctrls0.num_reads::cpu.data               1                       # Number of read requests responded to by this memory
system.mem_ctrls0.num_reads::switch_cpus.inst           49                       # Number of read requests responded to by this memory
system.mem_ctrls0.num_reads::switch_cpus.data      4452977                       # Number of read requests responded to by this memory
system.mem_ctrls0.num_reads::switch_cpus_1.inst           14                       # Number of read requests responded to by this memory
system.mem_ctrls0.num_reads::switch_cpus_1.data      2465884                       # Number of read requests responded to by this memory
system.mem_ctrls0.num_reads::total            6918926                       # Number of read requests responded to by this memory
system.mem_ctrls0.num_writes::writebacks      3218467                       # Number of write requests responded to by this memory
system.mem_ctrls0.num_writes::total           3218467                       # Number of write requests responded to by this memory
system.mem_ctrls0.bw_read::cpu.inst                17                       # Total read bandwidth from this memory (bytes/s)
system.mem_ctrls0.bw_read::cpu.data                17                       # Total read bandwidth from this memory (bytes/s)
system.mem_ctrls0.bw_read::switch_cpus.inst          824                       # Total read bandwidth from this memory (bytes/s)
system.mem_ctrls0.bw_read::switch_cpus.data     74878556                       # Total read bandwidth from this memory (bytes/s)
system.mem_ctrls0.bw_read::switch_cpus_1.inst          235                       # Total read bandwidth from this memory (bytes/s)
system.mem_ctrls0.bw_read::switch_cpus_1.data     41464807                       # Total read bandwidth from this memory (bytes/s)
system.mem_ctrls0.bw_read::total            116344457                       # Total read bandwidth from this memory (bytes/s)
system.mem_ctrls0.bw_inst_read::cpu.inst           17                       # Instruction read bandwidth from this memory (bytes/s)
system.mem_ctrls0.bw_inst_read::switch_cpus.inst          824                       # Instruction read bandwidth from this memory (bytes/s)
system.mem_ctrls0.bw_inst_read::switch_cpus_1.inst          235                       # Instruction read bandwidth from this memory (bytes/s)
system.mem_ctrls0.bw_inst_read::total            1076                       # Instruction read bandwidth from this memory (bytes/s)
system.mem_ctrls0.bw_write::writebacks       54119786                       # Write bandwidth from this memory (bytes/s)
system.mem_ctrls0.bw_write::total            54119786                       # Write bandwidth from this memory (bytes/s)
system.mem_ctrls0.bw_total::writebacks       54119786                       # Total bandwidth to/from this memory (bytes/s)
system.mem_ctrls0.bw_total::cpu.inst               17                       # Total bandwidth to/from this memory (bytes/s)
system.mem_ctrls0.bw_total::cpu.data               17                       # Total bandwidth to/from this memory (bytes/s)
system.mem_ctrls0.bw_total::switch_cpus.inst          824                       # Total bandwidth to/from this memory (bytes/s)
system.mem_ctrls0.bw_total::switch_cpus.data     74878556                       # Total bandwidth to/from this memory (bytes/s)
system.mem_ctrls0.bw_total::switch_cpus_1.inst          235                       # Total bandwidth to/from this memory (bytes/s)
system.mem_ctrls0.bw_total::switch_cpus_1.data     41464807                       # Total bandwidth to/from this memory (bytes/s)
system.mem_ctrls0.bw_total::total           170464243                       # Total bandwidth to/from this memory (bytes/s)
system.mem_ctrls0.readReqs                    6918926                       # Number of read requests accepted
system.mem_ctrls0.writeReqs                   3218467                       # Number of write requests accepted
system.mem_ctrls0.readBursts                  6918926                       # Number of DRAM read bursts, including those serviced by the write queue
system.mem_ctrls0.writeBursts                 3218467                       # Number of DRAM write bursts, including those merged in the write queue
system.mem_ctrls0.bytesReadDRAM             439684288                       # Total number of bytes read from DRAM
system.mem_ctrls0.bytesReadWrQ                3126976                       # Total number of bytes read from write queue
system.mem_ctrls0.bytesWritten              205980544                       # Total number of bytes written to DRAM
system.mem_ctrls0.bytesReadSys              442811264                       # Total read bytes from the system interface side
system.mem_ctrls0.bytesWrittenSys           205981888                       # Total written bytes from the system interface side
system.mem_ctrls0.servicedByWrQ                 48859                       # Number of DRAM read bursts serviced by the write queue
system.mem_ctrls0.mergedWrBursts                    0                       # Number of DRAM write bursts merged with an existing one
system.mem_ctrls0.neitherReadNorWriteReqs            0                       # Number of requests that are neither read nor write
system.mem_ctrls0.perBankRdBursts::0           446163                       # Per bank write bursts
system.mem_ctrls0.perBankRdBursts::1           378290                       # Per bank write bursts
system.mem_ctrls0.perBankRdBursts::2           467766                       # Per bank write bursts
system.mem_ctrls0.perBankRdBursts::3           329601                       # Per bank write bursts
system.mem_ctrls0.perBankRdBursts::4           394802                       # Per bank write bursts
system.mem_ctrls0.perBankRdBursts::5           443216                       # Per bank write bursts
system.mem_ctrls0.perBankRdBursts::6           421740                       # Per bank write bursts
system.mem_ctrls0.perBankRdBursts::7           585759                       # Per bank write bursts
system.mem_ctrls0.perBankRdBursts::8           472778                       # Per bank write bursts
system.mem_ctrls0.perBankRdBursts::9           364102                       # Per bank write bursts
system.mem_ctrls0.perBankRdBursts::10          467946                       # Per bank write bursts
system.mem_ctrls0.perBankRdBursts::11          335268                       # Per bank write bursts
system.mem_ctrls0.perBankRdBursts::12          360202                       # Per bank write bursts
system.mem_ctrls0.perBankRdBursts::13          411474                       # Per bank write bursts
system.mem_ctrls0.perBankRdBursts::14          406450                       # Per bank write bursts
system.mem_ctrls0.perBankRdBursts::15          584510                       # Per bank write bursts
system.mem_ctrls0.perBankWrBursts::0           213075                       # Per bank write bursts
system.mem_ctrls0.perBankWrBursts::1           170581                       # Per bank write bursts
system.mem_ctrls0.perBankWrBursts::2           222540                       # Per bank write bursts
system.mem_ctrls0.perBankWrBursts::3           153725                       # Per bank write bursts
system.mem_ctrls0.perBankWrBursts::4           185979                       # Per bank write bursts
system.mem_ctrls0.perBankWrBursts::5           199455                       # Per bank write bursts
system.mem_ctrls0.perBankWrBursts::6           181522                       # Per bank write bursts
system.mem_ctrls0.perBankWrBursts::7           265854                       # Per bank write bursts
system.mem_ctrls0.perBankWrBursts::8           225132                       # Per bank write bursts
system.mem_ctrls0.perBankWrBursts::9           163367                       # Per bank write bursts
system.mem_ctrls0.perBankWrBursts::10          218214                       # Per bank write bursts
system.mem_ctrls0.perBankWrBursts::11          159422                       # Per bank write bursts
system.mem_ctrls0.perBankWrBursts::12          178571                       # Per bank write bursts
system.mem_ctrls0.perBankWrBursts::13          204011                       # Per bank write bursts
system.mem_ctrls0.perBankWrBursts::14          198567                       # Per bank write bursts
system.mem_ctrls0.perBankWrBursts::15          278431                       # Per bank write bursts
system.mem_ctrls0.numRdRetry                        0                       # Number of times read queue was full causing retry
system.mem_ctrls0.numWrRetry                        0                       # Number of times write queue was full causing retry
system.mem_ctrls0.totGap                 3806032504986                       # Total gap between requests
system.mem_ctrls0.readPktSize::0                    0                       # Read request sizes (log2)
system.mem_ctrls0.readPktSize::1                    0                       # Read request sizes (log2)
system.mem_ctrls0.readPktSize::2                    0                       # Read request sizes (log2)
system.mem_ctrls0.readPktSize::3                    0                       # Read request sizes (log2)
system.mem_ctrls0.readPktSize::4                    0                       # Read request sizes (log2)
system.mem_ctrls0.readPktSize::5                    0                       # Read request sizes (log2)
system.mem_ctrls0.readPktSize::6              6918926                       # Read request sizes (log2)
system.mem_ctrls0.writePktSize::0                   0                       # Write request sizes (log2)
system.mem_ctrls0.writePktSize::1                   0                       # Write request sizes (log2)
system.mem_ctrls0.writePktSize::2                   0                       # Write request sizes (log2)
system.mem_ctrls0.writePktSize::3                   0                       # Write request sizes (log2)
system.mem_ctrls0.writePktSize::4                   0                       # Write request sizes (log2)
system.mem_ctrls0.writePktSize::5                   0                       # Write request sizes (log2)
system.mem_ctrls0.writePktSize::6             3218467                       # Write request sizes (log2)
system.mem_ctrls0.rdQLenPdf::0                6628479                       # What read queue length does an incoming req see
system.mem_ctrls0.rdQLenPdf::1                 222848                       # What read queue length does an incoming req see
system.mem_ctrls0.rdQLenPdf::2                  17457                       # What read queue length does an incoming req see
system.mem_ctrls0.rdQLenPdf::3                   1283                       # What read queue length does an incoming req see
system.mem_ctrls0.rdQLenPdf::4                      0                       # What read queue length does an incoming req see
system.mem_ctrls0.rdQLenPdf::5                      0                       # What read queue length does an incoming req see
system.mem_ctrls0.rdQLenPdf::6                      0                       # What read queue length does an incoming req see
system.mem_ctrls0.rdQLenPdf::7                      0                       # What read queue length does an incoming req see
system.mem_ctrls0.rdQLenPdf::8                      0                       # What read queue length does an incoming req see
system.mem_ctrls0.rdQLenPdf::9                      0                       # What read queue length does an incoming req see
system.mem_ctrls0.rdQLenPdf::10                     0                       # What read queue length does an incoming req see
system.mem_ctrls0.rdQLenPdf::11                     0                       # What read queue length does an incoming req see
system.mem_ctrls0.rdQLenPdf::12                     0                       # What read queue length does an incoming req see
system.mem_ctrls0.rdQLenPdf::13                     0                       # What read queue length does an incoming req see
system.mem_ctrls0.rdQLenPdf::14                     0                       # What read queue length does an incoming req see
system.mem_ctrls0.rdQLenPdf::15                     0                       # What read queue length does an incoming req see
system.mem_ctrls0.rdQLenPdf::16                     0                       # What read queue length does an incoming req see
system.mem_ctrls0.rdQLenPdf::17                     0                       # What read queue length does an incoming req see
system.mem_ctrls0.rdQLenPdf::18                     0                       # What read queue length does an incoming req see
system.mem_ctrls0.rdQLenPdf::19                     0                       # What read queue length does an incoming req see
system.mem_ctrls0.rdQLenPdf::20                     0                       # What read queue length does an incoming req see
system.mem_ctrls0.rdQLenPdf::21                     0                       # What read queue length does an incoming req see
system.mem_ctrls0.rdQLenPdf::22                     0                       # What read queue length does an incoming req see
system.mem_ctrls0.rdQLenPdf::23                     0                       # What read queue length does an incoming req see
system.mem_ctrls0.rdQLenPdf::24                     0                       # What read queue length does an incoming req see
system.mem_ctrls0.rdQLenPdf::25                     0                       # What read queue length does an incoming req see
system.mem_ctrls0.rdQLenPdf::26                     0                       # What read queue length does an incoming req see
system.mem_ctrls0.rdQLenPdf::27                     0                       # What read queue length does an incoming req see
system.mem_ctrls0.rdQLenPdf::28                     0                       # What read queue length does an incoming req see
system.mem_ctrls0.rdQLenPdf::29                     0                       # What read queue length does an incoming req see
system.mem_ctrls0.rdQLenPdf::30                     0                       # What read queue length does an incoming req see
system.mem_ctrls0.rdQLenPdf::31                     0                       # What read queue length does an incoming req see
system.mem_ctrls0.wrQLenPdf::0                      2                       # What write queue length does an incoming req see
system.mem_ctrls0.wrQLenPdf::1                      2                       # What write queue length does an incoming req see
system.mem_ctrls0.wrQLenPdf::2                      2                       # What write queue length does an incoming req see
system.mem_ctrls0.wrQLenPdf::3                      2                       # What write queue length does an incoming req see
system.mem_ctrls0.wrQLenPdf::4                      2                       # What write queue length does an incoming req see
system.mem_ctrls0.wrQLenPdf::5                      2                       # What write queue length does an incoming req see
system.mem_ctrls0.wrQLenPdf::6                      2                       # What write queue length does an incoming req see
system.mem_ctrls0.wrQLenPdf::7                      2                       # What write queue length does an incoming req see
system.mem_ctrls0.wrQLenPdf::8                      2                       # What write queue length does an incoming req see
system.mem_ctrls0.wrQLenPdf::9                      2                       # What write queue length does an incoming req see
system.mem_ctrls0.wrQLenPdf::10                     2                       # What write queue length does an incoming req see
system.mem_ctrls0.wrQLenPdf::11                     2                       # What write queue length does an incoming req see
system.mem_ctrls0.wrQLenPdf::12                     2                       # What write queue length does an incoming req see
system.mem_ctrls0.wrQLenPdf::13                     2                       # What write queue length does an incoming req see
system.mem_ctrls0.wrQLenPdf::14                     2                       # What write queue length does an incoming req see
system.mem_ctrls0.wrQLenPdf::15                151373                       # What write queue length does an incoming req see
system.mem_ctrls0.wrQLenPdf::16                154579                       # What write queue length does an incoming req see
system.mem_ctrls0.wrQLenPdf::17                180836                       # What write queue length does an incoming req see
system.mem_ctrls0.wrQLenPdf::18                182066                       # What write queue length does an incoming req see
system.mem_ctrls0.wrQLenPdf::19                182146                       # What write queue length does an incoming req see
system.mem_ctrls0.wrQLenPdf::20                182129                       # What write queue length does an incoming req see
system.mem_ctrls0.wrQLenPdf::21                182093                       # What write queue length does an incoming req see
system.mem_ctrls0.wrQLenPdf::22                182050                       # What write queue length does an incoming req see
system.mem_ctrls0.wrQLenPdf::23                182132                       # What write queue length does an incoming req see
system.mem_ctrls0.wrQLenPdf::24                182102                       # What write queue length does an incoming req see
system.mem_ctrls0.wrQLenPdf::25                182136                       # What write queue length does an incoming req see
system.mem_ctrls0.wrQLenPdf::26                182431                       # What write queue length does an incoming req see
system.mem_ctrls0.wrQLenPdf::27                182056                       # What write queue length does an incoming req see
system.mem_ctrls0.wrQLenPdf::28                182047                       # What write queue length does an incoming req see
system.mem_ctrls0.wrQLenPdf::29                182236                       # What write queue length does an incoming req see
system.mem_ctrls0.wrQLenPdf::30                182647                       # What write queue length does an incoming req see
system.mem_ctrls0.wrQLenPdf::31                181682                       # What write queue length does an incoming req see
system.mem_ctrls0.wrQLenPdf::32                181663                       # What write queue length does an incoming req see
system.mem_ctrls0.wrQLenPdf::33                    32                       # What write queue length does an incoming req see
system.mem_ctrls0.wrQLenPdf::34                     1                       # What write queue length does an incoming req see
system.mem_ctrls0.wrQLenPdf::35                     0                       # What write queue length does an incoming req see
system.mem_ctrls0.wrQLenPdf::36                     0                       # What write queue length does an incoming req see
system.mem_ctrls0.wrQLenPdf::37                     0                       # What write queue length does an incoming req see
system.mem_ctrls0.wrQLenPdf::38                     0                       # What write queue length does an incoming req see
system.mem_ctrls0.wrQLenPdf::39                     0                       # What write queue length does an incoming req see
system.mem_ctrls0.wrQLenPdf::40                     0                       # What write queue length does an incoming req see
system.mem_ctrls0.wrQLenPdf::41                     0                       # What write queue length does an incoming req see
system.mem_ctrls0.wrQLenPdf::42                     0                       # What write queue length does an incoming req see
system.mem_ctrls0.wrQLenPdf::43                     0                       # What write queue length does an incoming req see
system.mem_ctrls0.wrQLenPdf::44                     0                       # What write queue length does an incoming req see
system.mem_ctrls0.wrQLenPdf::45                     0                       # What write queue length does an incoming req see
system.mem_ctrls0.wrQLenPdf::46                     0                       # What write queue length does an incoming req see
system.mem_ctrls0.wrQLenPdf::47                     0                       # What write queue length does an incoming req see
system.mem_ctrls0.wrQLenPdf::48                     0                       # What write queue length does an incoming req see
system.mem_ctrls0.wrQLenPdf::49                     0                       # What write queue length does an incoming req see
system.mem_ctrls0.wrQLenPdf::50                     0                       # What write queue length does an incoming req see
system.mem_ctrls0.wrQLenPdf::51                     0                       # What write queue length does an incoming req see
system.mem_ctrls0.wrQLenPdf::52                     0                       # What write queue length does an incoming req see
system.mem_ctrls0.wrQLenPdf::53                     0                       # What write queue length does an incoming req see
system.mem_ctrls0.wrQLenPdf::54                     0                       # What write queue length does an incoming req see
system.mem_ctrls0.wrQLenPdf::55                     0                       # What write queue length does an incoming req see
system.mem_ctrls0.wrQLenPdf::56                     0                       # What write queue length does an incoming req see
system.mem_ctrls0.wrQLenPdf::57                     0                       # What write queue length does an incoming req see
system.mem_ctrls0.wrQLenPdf::58                     0                       # What write queue length does an incoming req see
system.mem_ctrls0.wrQLenPdf::59                     0                       # What write queue length does an incoming req see
system.mem_ctrls0.wrQLenPdf::60                     0                       # What write queue length does an incoming req see
system.mem_ctrls0.wrQLenPdf::61                     0                       # What write queue length does an incoming req see
system.mem_ctrls0.wrQLenPdf::62                     0                       # What write queue length does an incoming req see
system.mem_ctrls0.wrQLenPdf::63                     0                       # What write queue length does an incoming req see
system.mem_ctrls0.bytesPerActivate::samples      8928514                       # Bytes accessed per row activation
system.mem_ctrls0.bytesPerActivate::mean    72.314912                       # Bytes accessed per row activation
system.mem_ctrls0.bytesPerActivate::gmean    69.270638                       # Bytes accessed per row activation
system.mem_ctrls0.bytesPerActivate::stdev    29.811257                       # Bytes accessed per row activation
system.mem_ctrls0.bytesPerActivate::0-127      8052442     90.19%     90.19% # Bytes accessed per row activation
system.mem_ctrls0.bytesPerActivate::128-255       818135      9.16%     99.35% # Bytes accessed per row activation
system.mem_ctrls0.bytesPerActivate::256-383        47618      0.53%     99.88% # Bytes accessed per row activation
system.mem_ctrls0.bytesPerActivate::384-511         8060      0.09%     99.97% # Bytes accessed per row activation
system.mem_ctrls0.bytesPerActivate::512-639         1700      0.02%     99.99% # Bytes accessed per row activation
system.mem_ctrls0.bytesPerActivate::640-767          452      0.01%    100.00% # Bytes accessed per row activation
system.mem_ctrls0.bytesPerActivate::768-895           90      0.00%    100.00% # Bytes accessed per row activation
system.mem_ctrls0.bytesPerActivate::896-1023           15      0.00%    100.00% # Bytes accessed per row activation
system.mem_ctrls0.bytesPerActivate::1024-1151            2      0.00%    100.00% # Bytes accessed per row activation
system.mem_ctrls0.bytesPerActivate::total      8928514                       # Bytes accessed per row activation
system.mem_ctrls0.rdPerTurnAround::samples       181658                       # Reads before turning the bus around for writes
system.mem_ctrls0.rdPerTurnAround::mean     37.818676                       # Reads before turning the bus around for writes
system.mem_ctrls0.rdPerTurnAround::gmean    34.448323                       # Reads before turning the bus around for writes
system.mem_ctrls0.rdPerTurnAround::stdev    57.958766                       # Reads before turning the bus around for writes
system.mem_ctrls0.rdPerTurnAround::0-1023       181657    100.00%    100.00% # Reads before turning the bus around for writes
system.mem_ctrls0.rdPerTurnAround::22528-23551            1      0.00%    100.00% # Reads before turning the bus around for writes
system.mem_ctrls0.rdPerTurnAround::total       181658                       # Reads before turning the bus around for writes
system.mem_ctrls0.wrPerTurnAround::samples       181658                       # Writes before turning the bus around for reads
system.mem_ctrls0.wrPerTurnAround::mean     17.717062                       # Writes before turning the bus around for reads
system.mem_ctrls0.wrPerTurnAround::gmean    17.700109                       # Writes before turning the bus around for reads
system.mem_ctrls0.wrPerTurnAround::stdev     0.757310                       # Writes before turning the bus around for reads
system.mem_ctrls0.wrPerTurnAround::16           27310     15.03%     15.03% # Writes before turning the bus around for reads
system.mem_ctrls0.wrPerTurnAround::17            2809      1.55%     16.58% # Writes before turning the bus around for reads
system.mem_ctrls0.wrPerTurnAround::18          145813     80.27%     96.85% # Writes before turning the bus around for reads
system.mem_ctrls0.wrPerTurnAround::19            5437      2.99%     99.84% # Writes before turning the bus around for reads
system.mem_ctrls0.wrPerTurnAround::20             275      0.15%     99.99% # Writes before turning the bus around for reads
system.mem_ctrls0.wrPerTurnAround::21              12      0.01%    100.00% # Writes before turning the bus around for reads
system.mem_ctrls0.wrPerTurnAround::22               2      0.00%    100.00% # Writes before turning the bus around for reads
system.mem_ctrls0.wrPerTurnAround::total       181658                       # Writes before turning the bus around for reads
system.mem_ctrls0.totQLat                187223821429                       # Total ticks spent queuing
system.mem_ctrls0.totMemAccLat           316037577679                       # Total ticks spent from burst creation until serviced by the DRAM
system.mem_ctrls0.totBusLat               34350335000                       # Total ticks spent in databus transfers
system.mem_ctrls0.avgQLat                    27252.11                       # Average queueing delay per DRAM burst
system.mem_ctrls0.avgBusLat                   5000.00                       # Average bus latency per DRAM burst
system.mem_ctrls0.avgMemAccLat               46002.11                       # Average memory access latency per DRAM burst
system.mem_ctrls0.avgRdBW                      115.52                       # Average DRAM read bandwidth in MiByte/s
system.mem_ctrls0.avgWrBW                       54.12                       # Average achieved write bandwidth in MiByte/s
system.mem_ctrls0.avgRdBWSys                   116.34                       # Average system read bandwidth in MiByte/s
system.mem_ctrls0.avgWrBWSys                    54.12                       # Average system write bandwidth in MiByte/s
system.mem_ctrls0.peakBW                     12800.00                       # Theoretical peak bandwidth in MiByte/s
system.mem_ctrls0.busUtil                        1.33                       # Data bus utilization in percentage
system.mem_ctrls0.busUtilRead                    0.90                       # Data bus utilization in percentage for reads
system.mem_ctrls0.busUtilWrite                   0.42                       # Data bus utilization in percentage for writes
system.mem_ctrls0.avgRdQLen                      1.02                       # Average read queue length when enqueuing
system.mem_ctrls0.avgWrQLen                     24.58                       # Average write queue length when enqueuing
system.mem_ctrls0.readRowHits                 1123362                       # Number of row buffer hits during reads
system.mem_ctrls0.writeRowHits                  36635                       # Number of row buffer hits during writes
system.mem_ctrls0.readRowHitRate                16.35                       # Row buffer hit rate for reads
system.mem_ctrls0.writeRowHitRate                1.14                       # Row buffer hit rate for writes
system.mem_ctrls0.avgGap                    375444.90                       # Average gap between requests
system.mem_ctrls0.pageHitRate                   11.50                       # Row buffer hit rate, read and write combined
system.mem_ctrls0_0.actEnergy             31868768820                       # Energy for activate commands per rank (pJ)
system.mem_ctrls0_0.preEnergy             16938652335                       # Energy for precharge commands per rank (pJ)
system.mem_ctrls0_0.readEnergy            24756786180                       # Energy for read commands per rank (pJ)
system.mem_ctrls0_0.writeEnergy            8314055820                       # Energy for write commands per rank (pJ)
system.mem_ctrls0_0.refreshEnergy        301932680400.000061                       # Energy for refresh commands per rank (pJ)
system.mem_ctrls0_0.actBackEnergy        197958877890                       # Energy for active background per rank (pJ)
system.mem_ctrls0_0.preBackEnergy          7003228800                       # Energy for precharge background per rank (pJ)
system.mem_ctrls0_0.actPowerDownEnergy   1293579918210                       # Energy for active power-down per rank (pJ)
system.mem_ctrls0_0.prePowerDownEnergy   191726873760                       # Energy for precharge power-down per rank (pJ)
system.mem_ctrls0_0.selfRefreshEnergy      7005387870                       # Energy for self refresh per rank (pJ)
system.mem_ctrls0_0.totalEnergy          2081118508815                       # Total energy per rank (pJ)
system.mem_ctrls0_0.averagePower           546.794134                       # Core power per rank (mW)
system.mem_ctrls0_0.totalIdleTime        3353590615744                       # Total Idle time Per DRAM Rank
system.mem_ctrls0_0.memoryStateTime::IDLE   4171567096                       # Time in different power states
system.mem_ctrls0_0.memoryStateTime::REF 127754412000                       # Time in different power states
system.mem_ctrls0_0.memoryStateTime::SREF  17517849523                       # Time in different power states
system.mem_ctrls0_0.memoryStateTime::PRE_PDN 499286584299                       # Time in different power states
system.mem_ctrls0_0.memoryStateTime::ACT 320519750043                       # Time in different power states
system.mem_ctrls0_0.memoryStateTime::ACT_PDN 2836786467562                       # Time in different power states
system.mem_ctrls0_1.actEnergy             31880835420                       # Energy for activate commands per rank (pJ)
system.mem_ctrls0_1.preEnergy             16945058295                       # Energy for precharge commands per rank (pJ)
system.mem_ctrls0_1.readEnergy            24295492200                       # Energy for read commands per rank (pJ)
system.mem_ctrls0_1.writeEnergy            8486232300                       # Energy for write commands per rank (pJ)
system.mem_ctrls0_1.refreshEnergy        301931451120.000061                       # Energy for refresh commands per rank (pJ)
system.mem_ctrls0_1.actBackEnergy        197117977410                       # Energy for active background per rank (pJ)
system.mem_ctrls0_1.preBackEnergy          7017012000                       # Energy for precharge background per rank (pJ)
system.mem_ctrls0_1.actPowerDownEnergy   1292529444120                       # Energy for active power-down per rank (pJ)
system.mem_ctrls0_1.prePowerDownEnergy   193302849120                       # Energy for precharge power-down per rank (pJ)
system.mem_ctrls0_1.selfRefreshEnergy      7006165530                       # Energy for self refresh per rank (pJ)
system.mem_ctrls0_1.totalEnergy          2080541985465                       # Total energy per rank (pJ)
system.mem_ctrls0_1.averagePower           546.642658                       # Core power per rank (mW)
system.mem_ctrls0_1.totalIdleTime        3355425701987                       # Total Idle time Per DRAM Rank
system.mem_ctrls0_1.memoryStateTime::IDLE   4175155810                       # Time in different power states
system.mem_ctrls0_1.memoryStateTime::REF 127754270000                       # Time in different power states
system.mem_ctrls0_1.memoryStateTime::SREF  17534139393                       # Time in different power states
system.mem_ctrls0_1.memoryStateTime::PRE_PDN 503394119360                       # Time in different power states
system.mem_ctrls0_1.memoryStateTime::ACT 318677548556                       # Time in different power states
system.mem_ctrls0_1.memoryStateTime::ACT_PDN 2834501397404                       # Time in different power states
system.mem_ctrls1.pwrStateResidencyTicks::UNDEFINED 304176257385210                       # Cumulative time (in ticks) in various power states
system.mem_ctrls1.bytes_read::cpu.inst             64                       # Number of bytes read from this memory
system.mem_ctrls1.bytes_read::cpu.data            128                       # Number of bytes read from this memory
system.mem_ctrls1.bytes_read::switch_cpus.inst         3904                       # Number of bytes read from this memory
system.mem_ctrls1.bytes_read::switch_cpus.data    285785664                       # Number of bytes read from this memory
system.mem_ctrls1.bytes_read::switch_cpus_1.inst          832                       # Number of bytes read from this memory
system.mem_ctrls1.bytes_read::switch_cpus_1.data    157967552                       # Number of bytes read from this memory
system.mem_ctrls1.bytes_read::total         443758144                       # Number of bytes read from this memory
system.mem_ctrls1.bytes_inst_read::cpu.inst           64                       # Number of instructions bytes read from this memory
system.mem_ctrls1.bytes_inst_read::switch_cpus.inst         3904                       # Number of instructions bytes read from this memory
system.mem_ctrls1.bytes_inst_read::switch_cpus_1.inst          832                       # Number of instructions bytes read from this memory
system.mem_ctrls1.bytes_inst_read::total         4800                       # Number of instructions bytes read from this memory
system.mem_ctrls1.bytes_written::writebacks    205374656                       # Number of bytes written to this memory
system.mem_ctrls1.bytes_written::total      205374656                       # Number of bytes written to this memory
system.mem_ctrls1.num_reads::cpu.inst               1                       # Number of read requests responded to by this memory
system.mem_ctrls1.num_reads::cpu.data               2                       # Number of read requests responded to by this memory
system.mem_ctrls1.num_reads::switch_cpus.inst           61                       # Number of read requests responded to by this memory
system.mem_ctrls1.num_reads::switch_cpus.data      4465401                       # Number of read requests responded to by this memory
system.mem_ctrls1.num_reads::switch_cpus_1.inst           13                       # Number of read requests responded to by this memory
system.mem_ctrls1.num_reads::switch_cpus_1.data      2468243                       # Number of read requests responded to by this memory
system.mem_ctrls1.num_reads::total            6933721                       # Number of read requests responded to by this memory
system.mem_ctrls1.num_writes::writebacks      3208979                       # Number of write requests responded to by this memory
system.mem_ctrls1.num_writes::total           3208979                       # Number of write requests responded to by this memory
system.mem_ctrls1.bw_read::cpu.inst                17                       # Total read bandwidth from this memory (bytes/s)
system.mem_ctrls1.bw_read::cpu.data                34                       # Total read bandwidth from this memory (bytes/s)
system.mem_ctrls1.bw_read::switch_cpus.inst         1026                       # Total read bandwidth from this memory (bytes/s)
system.mem_ctrls1.bw_read::switch_cpus.data     75087471                       # Total read bandwidth from this memory (bytes/s)
system.mem_ctrls1.bw_read::switch_cpus_1.inst          219                       # Total read bandwidth from this memory (bytes/s)
system.mem_ctrls1.bw_read::switch_cpus_1.data     41504475                       # Total read bandwidth from this memory (bytes/s)
system.mem_ctrls1.bw_read::total            116593240                       # Total read bandwidth from this memory (bytes/s)
system.mem_ctrls1.bw_inst_read::cpu.inst           17                       # Instruction read bandwidth from this memory (bytes/s)
system.mem_ctrls1.bw_inst_read::switch_cpus.inst         1026                       # Instruction read bandwidth from this memory (bytes/s)
system.mem_ctrls1.bw_inst_read::switch_cpus_1.inst          219                       # Instruction read bandwidth from this memory (bytes/s)
system.mem_ctrls1.bw_inst_read::total            1261                       # Instruction read bandwidth from this memory (bytes/s)
system.mem_ctrls1.bw_write::writebacks       53960242                       # Write bandwidth from this memory (bytes/s)
system.mem_ctrls1.bw_write::total            53960242                       # Write bandwidth from this memory (bytes/s)
system.mem_ctrls1.bw_total::writebacks       53960242                       # Total bandwidth to/from this memory (bytes/s)
system.mem_ctrls1.bw_total::cpu.inst               17                       # Total bandwidth to/from this memory (bytes/s)
system.mem_ctrls1.bw_total::cpu.data               34                       # Total bandwidth to/from this memory (bytes/s)
system.mem_ctrls1.bw_total::switch_cpus.inst         1026                       # Total bandwidth to/from this memory (bytes/s)
system.mem_ctrls1.bw_total::switch_cpus.data     75087471                       # Total bandwidth to/from this memory (bytes/s)
system.mem_ctrls1.bw_total::switch_cpus_1.inst          219                       # Total bandwidth to/from this memory (bytes/s)
system.mem_ctrls1.bw_total::switch_cpus_1.data     41504475                       # Total bandwidth to/from this memory (bytes/s)
system.mem_ctrls1.bw_total::total           170553482                       # Total bandwidth to/from this memory (bytes/s)
system.mem_ctrls1.readReqs                    6933721                       # Number of read requests accepted
system.mem_ctrls1.writeReqs                   3208979                       # Number of write requests accepted
system.mem_ctrls1.readBursts                  6933721                       # Number of DRAM read bursts, including those serviced by the write queue
system.mem_ctrls1.writeBursts                 3208979                       # Number of DRAM write bursts, including those merged in the write queue
system.mem_ctrls1.bytesReadDRAM             440612864                       # Total number of bytes read from DRAM
system.mem_ctrls1.bytesReadWrQ                3145280                       # Total number of bytes read from write queue
system.mem_ctrls1.bytesWritten              205372736                       # Total number of bytes written to DRAM
system.mem_ctrls1.bytesReadSys              443758144                       # Total read bytes from the system interface side
system.mem_ctrls1.bytesWrittenSys           205374656                       # Total written bytes from the system interface side
system.mem_ctrls1.servicedByWrQ                 49145                       # Number of DRAM read bursts serviced by the write queue
system.mem_ctrls1.mergedWrBursts                    0                       # Number of DRAM write bursts merged with an existing one
system.mem_ctrls1.neitherReadNorWriteReqs            0                       # Number of requests that are neither read nor write
system.mem_ctrls1.perBankRdBursts::0           449632                       # Per bank write bursts
system.mem_ctrls1.perBankRdBursts::1           374418                       # Per bank write bursts
system.mem_ctrls1.perBankRdBursts::2           462286                       # Per bank write bursts
system.mem_ctrls1.perBankRdBursts::3           338798                       # Per bank write bursts
system.mem_ctrls1.perBankRdBursts::4           400653                       # Per bank write bursts
system.mem_ctrls1.perBankRdBursts::5           448336                       # Per bank write bursts
system.mem_ctrls1.perBankRdBursts::6           425698                       # Per bank write bursts
system.mem_ctrls1.perBankRdBursts::7           586299                       # Per bank write bursts
system.mem_ctrls1.perBankRdBursts::8           489243                       # Per bank write bursts
system.mem_ctrls1.perBankRdBursts::9           371864                       # Per bank write bursts
system.mem_ctrls1.perBankRdBursts::10          470973                       # Per bank write bursts
system.mem_ctrls1.perBankRdBursts::11          324288                       # Per bank write bursts
system.mem_ctrls1.perBankRdBursts::12          362643                       # Per bank write bursts
system.mem_ctrls1.perBankRdBursts::13          399473                       # Per bank write bursts
system.mem_ctrls1.perBankRdBursts::14          409556                       # Per bank write bursts
system.mem_ctrls1.perBankRdBursts::15          570416                       # Per bank write bursts
system.mem_ctrls1.perBankWrBursts::0           212197                       # Per bank write bursts
system.mem_ctrls1.perBankWrBursts::1           166525                       # Per bank write bursts
system.mem_ctrls1.perBankWrBursts::2           216140                       # Per bank write bursts
system.mem_ctrls1.perBankWrBursts::3           161600                       # Per bank write bursts
system.mem_ctrls1.perBankWrBursts::4           179608                       # Per bank write bursts
system.mem_ctrls1.perBankWrBursts::5           206272                       # Per bank write bursts
system.mem_ctrls1.perBankWrBursts::6           181700                       # Per bank write bursts
system.mem_ctrls1.perBankWrBursts::7           266635                       # Per bank write bursts
system.mem_ctrls1.perBankWrBursts::8           229140                       # Per bank write bursts
system.mem_ctrls1.perBankWrBursts::9           163029                       # Per bank write bursts
system.mem_ctrls1.perBankWrBursts::10          222801                       # Per bank write bursts
system.mem_ctrls1.perBankWrBursts::11          155770                       # Per bank write bursts
system.mem_ctrls1.perBankWrBursts::12          181979                       # Per bank write bursts
system.mem_ctrls1.perBankWrBursts::13          191754                       # Per bank write bursts
system.mem_ctrls1.perBankWrBursts::14          200951                       # Per bank write bursts
system.mem_ctrls1.perBankWrBursts::15          272848                       # Per bank write bursts
system.mem_ctrls1.numRdRetry                        0                       # Number of times read queue was full causing retry
system.mem_ctrls1.numWrRetry                        0                       # Number of times write queue was full causing retry
system.mem_ctrls1.totGap                 3806036063757                       # Total gap between requests
system.mem_ctrls1.readPktSize::0                    0                       # Read request sizes (log2)
system.mem_ctrls1.readPktSize::1                    0                       # Read request sizes (log2)
system.mem_ctrls1.readPktSize::2                    0                       # Read request sizes (log2)
system.mem_ctrls1.readPktSize::3                    0                       # Read request sizes (log2)
system.mem_ctrls1.readPktSize::4                    0                       # Read request sizes (log2)
system.mem_ctrls1.readPktSize::5                    0                       # Read request sizes (log2)
system.mem_ctrls1.readPktSize::6              6933721                       # Read request sizes (log2)
system.mem_ctrls1.writePktSize::0                   0                       # Write request sizes (log2)
system.mem_ctrls1.writePktSize::1                   0                       # Write request sizes (log2)
system.mem_ctrls1.writePktSize::2                   0                       # Write request sizes (log2)
system.mem_ctrls1.writePktSize::3                   0                       # Write request sizes (log2)
system.mem_ctrls1.writePktSize::4                   0                       # Write request sizes (log2)
system.mem_ctrls1.writePktSize::5                   0                       # Write request sizes (log2)
system.mem_ctrls1.writePktSize::6             3208979                       # Write request sizes (log2)
system.mem_ctrls1.rdQLenPdf::0                6645319                       # What read queue length does an incoming req see
system.mem_ctrls1.rdQLenPdf::1                 222543                       # What read queue length does an incoming req see
system.mem_ctrls1.rdQLenPdf::2                  15954                       # What read queue length does an incoming req see
system.mem_ctrls1.rdQLenPdf::3                    760                       # What read queue length does an incoming req see
system.mem_ctrls1.rdQLenPdf::4                      0                       # What read queue length does an incoming req see
system.mem_ctrls1.rdQLenPdf::5                      0                       # What read queue length does an incoming req see
system.mem_ctrls1.rdQLenPdf::6                      0                       # What read queue length does an incoming req see
system.mem_ctrls1.rdQLenPdf::7                      0                       # What read queue length does an incoming req see
system.mem_ctrls1.rdQLenPdf::8                      0                       # What read queue length does an incoming req see
system.mem_ctrls1.rdQLenPdf::9                      0                       # What read queue length does an incoming req see
system.mem_ctrls1.rdQLenPdf::10                     0                       # What read queue length does an incoming req see
system.mem_ctrls1.rdQLenPdf::11                     0                       # What read queue length does an incoming req see
system.mem_ctrls1.rdQLenPdf::12                     0                       # What read queue length does an incoming req see
system.mem_ctrls1.rdQLenPdf::13                     0                       # What read queue length does an incoming req see
system.mem_ctrls1.rdQLenPdf::14                     0                       # What read queue length does an incoming req see
system.mem_ctrls1.rdQLenPdf::15                     0                       # What read queue length does an incoming req see
system.mem_ctrls1.rdQLenPdf::16                     0                       # What read queue length does an incoming req see
system.mem_ctrls1.rdQLenPdf::17                     0                       # What read queue length does an incoming req see
system.mem_ctrls1.rdQLenPdf::18                     0                       # What read queue length does an incoming req see
system.mem_ctrls1.rdQLenPdf::19                     0                       # What read queue length does an incoming req see
system.mem_ctrls1.rdQLenPdf::20                     0                       # What read queue length does an incoming req see
system.mem_ctrls1.rdQLenPdf::21                     0                       # What read queue length does an incoming req see
system.mem_ctrls1.rdQLenPdf::22                     0                       # What read queue length does an incoming req see
system.mem_ctrls1.rdQLenPdf::23                     0                       # What read queue length does an incoming req see
system.mem_ctrls1.rdQLenPdf::24                     0                       # What read queue length does an incoming req see
system.mem_ctrls1.rdQLenPdf::25                     0                       # What read queue length does an incoming req see
system.mem_ctrls1.rdQLenPdf::26                     0                       # What read queue length does an incoming req see
system.mem_ctrls1.rdQLenPdf::27                     0                       # What read queue length does an incoming req see
system.mem_ctrls1.rdQLenPdf::28                     0                       # What read queue length does an incoming req see
system.mem_ctrls1.rdQLenPdf::29                     0                       # What read queue length does an incoming req see
system.mem_ctrls1.rdQLenPdf::30                     0                       # What read queue length does an incoming req see
system.mem_ctrls1.rdQLenPdf::31                     0                       # What read queue length does an incoming req see
system.mem_ctrls1.wrQLenPdf::0                      2                       # What write queue length does an incoming req see
system.mem_ctrls1.wrQLenPdf::1                      2                       # What write queue length does an incoming req see
system.mem_ctrls1.wrQLenPdf::2                      2                       # What write queue length does an incoming req see
system.mem_ctrls1.wrQLenPdf::3                      2                       # What write queue length does an incoming req see
system.mem_ctrls1.wrQLenPdf::4                      2                       # What write queue length does an incoming req see
system.mem_ctrls1.wrQLenPdf::5                      2                       # What write queue length does an incoming req see
system.mem_ctrls1.wrQLenPdf::6                      2                       # What write queue length does an incoming req see
system.mem_ctrls1.wrQLenPdf::7                      2                       # What write queue length does an incoming req see
system.mem_ctrls1.wrQLenPdf::8                      2                       # What write queue length does an incoming req see
system.mem_ctrls1.wrQLenPdf::9                      2                       # What write queue length does an incoming req see
system.mem_ctrls1.wrQLenPdf::10                     2                       # What write queue length does an incoming req see
system.mem_ctrls1.wrQLenPdf::11                     2                       # What write queue length does an incoming req see
system.mem_ctrls1.wrQLenPdf::12                     2                       # What write queue length does an incoming req see
system.mem_ctrls1.wrQLenPdf::13                     2                       # What write queue length does an incoming req see
system.mem_ctrls1.wrQLenPdf::14                     2                       # What write queue length does an incoming req see
system.mem_ctrls1.wrQLenPdf::15                151232                       # What write queue length does an incoming req see
system.mem_ctrls1.wrQLenPdf::16                154500                       # What write queue length does an incoming req see
system.mem_ctrls1.wrQLenPdf::17                180349                       # What write queue length does an incoming req see
system.mem_ctrls1.wrQLenPdf::18                181475                       # What write queue length does an incoming req see
system.mem_ctrls1.wrQLenPdf::19                181575                       # What write queue length does an incoming req see
system.mem_ctrls1.wrQLenPdf::20                181583                       # What write queue length does an incoming req see
system.mem_ctrls1.wrQLenPdf::21                181522                       # What write queue length does an incoming req see
system.mem_ctrls1.wrQLenPdf::22                181466                       # What write queue length does an incoming req see
system.mem_ctrls1.wrQLenPdf::23                181546                       # What write queue length does an incoming req see
system.mem_ctrls1.wrQLenPdf::24                181511                       # What write queue length does an incoming req see
system.mem_ctrls1.wrQLenPdf::25                181540                       # What write queue length does an incoming req see
system.mem_ctrls1.wrQLenPdf::26                181841                       # What write queue length does an incoming req see
system.mem_ctrls1.wrQLenPdf::27                181487                       # What write queue length does an incoming req see
system.mem_ctrls1.wrQLenPdf::28                181432                       # What write queue length does an incoming req see
system.mem_ctrls1.wrQLenPdf::29                181627                       # What write queue length does an incoming req see
system.mem_ctrls1.wrQLenPdf::30                182026                       # What write queue length does an incoming req see
system.mem_ctrls1.wrQLenPdf::31                181109                       # What write queue length does an incoming req see
system.mem_ctrls1.wrQLenPdf::32                181098                       # What write queue length does an incoming req see
system.mem_ctrls1.wrQLenPdf::33                    28                       # What write queue length does an incoming req see
system.mem_ctrls1.wrQLenPdf::34                     2                       # What write queue length does an incoming req see
system.mem_ctrls1.wrQLenPdf::35                     0                       # What write queue length does an incoming req see
system.mem_ctrls1.wrQLenPdf::36                     0                       # What write queue length does an incoming req see
system.mem_ctrls1.wrQLenPdf::37                     0                       # What write queue length does an incoming req see
system.mem_ctrls1.wrQLenPdf::38                     0                       # What write queue length does an incoming req see
system.mem_ctrls1.wrQLenPdf::39                     0                       # What write queue length does an incoming req see
system.mem_ctrls1.wrQLenPdf::40                     0                       # What write queue length does an incoming req see
system.mem_ctrls1.wrQLenPdf::41                     0                       # What write queue length does an incoming req see
system.mem_ctrls1.wrQLenPdf::42                     0                       # What write queue length does an incoming req see
system.mem_ctrls1.wrQLenPdf::43                     0                       # What write queue length does an incoming req see
system.mem_ctrls1.wrQLenPdf::44                     0                       # What write queue length does an incoming req see
system.mem_ctrls1.wrQLenPdf::45                     0                       # What write queue length does an incoming req see
system.mem_ctrls1.wrQLenPdf::46                     0                       # What write queue length does an incoming req see
system.mem_ctrls1.wrQLenPdf::47                     0                       # What write queue length does an incoming req see
system.mem_ctrls1.wrQLenPdf::48                     0                       # What write queue length does an incoming req see
system.mem_ctrls1.wrQLenPdf::49                     0                       # What write queue length does an incoming req see
system.mem_ctrls1.wrQLenPdf::50                     0                       # What write queue length does an incoming req see
system.mem_ctrls1.wrQLenPdf::51                     0                       # What write queue length does an incoming req see
system.mem_ctrls1.wrQLenPdf::52                     0                       # What write queue length does an incoming req see
system.mem_ctrls1.wrQLenPdf::53                     0                       # What write queue length does an incoming req see
system.mem_ctrls1.wrQLenPdf::54                     0                       # What write queue length does an incoming req see
system.mem_ctrls1.wrQLenPdf::55                     0                       # What write queue length does an incoming req see
system.mem_ctrls1.wrQLenPdf::56                     0                       # What write queue length does an incoming req see
system.mem_ctrls1.wrQLenPdf::57                     0                       # What write queue length does an incoming req see
system.mem_ctrls1.wrQLenPdf::58                     0                       # What write queue length does an incoming req see
system.mem_ctrls1.wrQLenPdf::59                     0                       # What write queue length does an incoming req see
system.mem_ctrls1.wrQLenPdf::60                     0                       # What write queue length does an incoming req see
system.mem_ctrls1.wrQLenPdf::61                     0                       # What write queue length does an incoming req see
system.mem_ctrls1.wrQLenPdf::62                     0                       # What write queue length does an incoming req see
system.mem_ctrls1.wrQLenPdf::63                     0                       # What write queue length does an incoming req see
system.mem_ctrls1.bytesPerActivate::samples      8936335                       # Bytes accessed per row activation
system.mem_ctrls1.bytesPerActivate::mean    72.287503                       # Bytes accessed per row activation
system.mem_ctrls1.bytesPerActivate::gmean    69.259730                       # Bytes accessed per row activation
system.mem_ctrls1.bytesPerActivate::stdev    29.700865                       # Bytes accessed per row activation
system.mem_ctrls1.bytesPerActivate::0-127      8059888     90.19%     90.19% # Bytes accessed per row activation
system.mem_ctrls1.bytesPerActivate::128-255       819870      9.17%     99.37% # Bytes accessed per row activation
system.mem_ctrls1.bytesPerActivate::256-383        46371      0.52%     99.89% # Bytes accessed per row activation
system.mem_ctrls1.bytesPerActivate::384-511         7882      0.09%     99.97% # Bytes accessed per row activation
system.mem_ctrls1.bytesPerActivate::512-639         1763      0.02%     99.99% # Bytes accessed per row activation
system.mem_ctrls1.bytesPerActivate::640-767          442      0.00%    100.00% # Bytes accessed per row activation
system.mem_ctrls1.bytesPerActivate::768-895          101      0.00%    100.00% # Bytes accessed per row activation
system.mem_ctrls1.bytesPerActivate::896-1023           16      0.00%    100.00% # Bytes accessed per row activation
system.mem_ctrls1.bytesPerActivate::1024-1151            2      0.00%    100.00% # Bytes accessed per row activation
system.mem_ctrls1.bytesPerActivate::total      8936335                       # Bytes accessed per row activation
system.mem_ctrls1.rdPerTurnAround::samples       181086                       # Reads before turning the bus around for writes
system.mem_ctrls1.rdPerTurnAround::mean     38.018201                       # Reads before turning the bus around for writes
system.mem_ctrls1.rdPerTurnAround::gmean    34.592193                       # Reads before turning the bus around for writes
system.mem_ctrls1.rdPerTurnAround::stdev    59.281426                       # Reads before turning the bus around for writes
system.mem_ctrls1.rdPerTurnAround::0-1023       181085    100.00%    100.00% # Reads before turning the bus around for writes
system.mem_ctrls1.rdPerTurnAround::23552-24575            1      0.00%    100.00% # Reads before turning the bus around for writes
system.mem_ctrls1.rdPerTurnAround::total       181086                       # Reads before turning the bus around for writes
system.mem_ctrls1.wrPerTurnAround::samples       181086                       # Writes before turning the bus around for reads
system.mem_ctrls1.wrPerTurnAround::mean     17.720580                       # Writes before turning the bus around for reads
system.mem_ctrls1.wrPerTurnAround::gmean    17.703793                       # Writes before turning the bus around for reads
system.mem_ctrls1.wrPerTurnAround::stdev     0.753652                       # Writes before turning the bus around for reads
system.mem_ctrls1.wrPerTurnAround::16           26877     14.84%     14.84% # Writes before turning the bus around for reads
system.mem_ctrls1.wrPerTurnAround::17            2812      1.55%     16.39% # Writes before turning the bus around for reads
system.mem_ctrls1.wrPerTurnAround::18          145753     80.49%     96.88% # Writes before turning the bus around for reads
system.mem_ctrls1.wrPerTurnAround::19            5347      2.95%     99.84% # Writes before turning the bus around for reads
system.mem_ctrls1.wrPerTurnAround::20             274      0.15%     99.99% # Writes before turning the bus around for reads
system.mem_ctrls1.wrPerTurnAround::21              21      0.01%    100.00% # Writes before turning the bus around for reads
system.mem_ctrls1.wrPerTurnAround::22               1      0.00%    100.00% # Writes before turning the bus around for reads
system.mem_ctrls1.wrPerTurnAround::23               1      0.00%    100.00% # Writes before turning the bus around for reads
system.mem_ctrls1.wrPerTurnAround::total       181086                       # Writes before turning the bus around for reads
system.mem_ctrls1.totQLat                187837288855                       # Total ticks spent queuing
system.mem_ctrls1.totMemAccLat           316923088855                       # Total ticks spent from burst creation until serviced by the DRAM
system.mem_ctrls1.totBusLat               34422880000                       # Total ticks spent in databus transfers
system.mem_ctrls1.avgQLat                    27283.78                       # Average queueing delay per DRAM burst
system.mem_ctrls1.avgBusLat                   5000.00                       # Average bus latency per DRAM burst
system.mem_ctrls1.avgMemAccLat               46033.78                       # Average memory access latency per DRAM burst
system.mem_ctrls1.avgRdBW                      115.77                       # Average DRAM read bandwidth in MiByte/s
system.mem_ctrls1.avgWrBW                       53.96                       # Average achieved write bandwidth in MiByte/s
system.mem_ctrls1.avgRdBWSys                   116.59                       # Average system read bandwidth in MiByte/s
system.mem_ctrls1.avgWrBWSys                    53.96                       # Average system write bandwidth in MiByte/s
system.mem_ctrls1.peakBW                     12800.00                       # Theoretical peak bandwidth in MiByte/s
system.mem_ctrls1.busUtil                        1.33                       # Data bus utilization in percentage
system.mem_ctrls1.busUtilRead                    0.90                       # Data bus utilization in percentage for reads
system.mem_ctrls1.busUtilWrite                   0.42                       # Data bus utilization in percentage for writes
system.mem_ctrls1.avgRdQLen                      1.02                       # Average read queue length when enqueuing
system.mem_ctrls1.avgWrQLen                     24.58                       # Average write queue length when enqueuing
system.mem_ctrls1.readRowHits                 1121168                       # Number of row buffer hits during reads
system.mem_ctrls1.writeRowHits                  36018                       # Number of row buffer hits during writes
system.mem_ctrls1.readRowHitRate                16.29                       # Row buffer hit rate for reads
system.mem_ctrls1.writeRowHitRate                1.12                       # Row buffer hit rate for writes
system.mem_ctrls1.avgGap                    375248.81                       # Average gap between requests
system.mem_ctrls1.pageHitRate                   11.46                       # Row buffer hit rate, read and write combined
system.mem_ctrls1_0.actEnergy             31978153620                       # Energy for activate commands per rank (pJ)
system.mem_ctrls1_0.preEnergy             16996787940                       # Energy for precharge commands per rank (pJ)
system.mem_ctrls1_0.readEnergy            24890896800                       # Energy for read commands per rank (pJ)
system.mem_ctrls1_0.writeEnergy            8303333940                       # Energy for write commands per rank (pJ)
system.mem_ctrls1_0.refreshEnergy        301917314400.000061                       # Energy for refresh commands per rank (pJ)
system.mem_ctrls1_0.actBackEnergy        198151130910                       # Energy for active background per rank (pJ)
system.mem_ctrls1_0.preBackEnergy          6993169920                       # Energy for precharge background per rank (pJ)
system.mem_ctrls1_0.actPowerDownEnergy   1295088077220                       # Energy for active power-down per rank (pJ)
system.mem_ctrls1_0.prePowerDownEnergy   190647962880                       # Energy for precharge power-down per rank (pJ)
system.mem_ctrls1_0.selfRefreshEnergy      6708024630                       # Energy for self refresh per rank (pJ)
system.mem_ctrls1_0.totalEnergy          2081702406750                       # Total energy per rank (pJ)
system.mem_ctrls1_0.averagePower           546.947547                       # Core power per rank (mW)
system.mem_ctrls1_0.totalIdleTime        3353216671507                       # Total Idle time Per DRAM Rank
system.mem_ctrls1_0.memoryStateTime::IDLE   4129894123                       # Time in different power states
system.mem_ctrls1_0.memoryStateTime::REF 127747174000                       # Time in different power states
system.mem_ctrls1_0.memoryStateTime::SREF  16637414033                       # Time in different power states
system.mem_ctrls1_0.memoryStateTime::PRE_PDN 496482431378                       # Time in different power states
system.mem_ctrls1_0.memoryStateTime::ACT 320940862653                       # Time in different power states
system.mem_ctrls1_0.memoryStateTime::ACT_PDN 2840098854336                       # Time in different power states
system.mem_ctrls1_1.actEnergy             31827306840                       # Energy for activate commands per rank (pJ)
system.mem_ctrls1_1.preEnergy             16916603385                       # Energy for precharge commands per rank (pJ)
system.mem_ctrls1_1.readEnergy            24264975840                       # Energy for read commands per rank (pJ)
system.mem_ctrls1_1.writeEnergy            8447379840                       # Energy for write commands per rank (pJ)
system.mem_ctrls1_1.refreshEnergy        301941285360.000061                       # Energy for refresh commands per rank (pJ)
system.mem_ctrls1_1.actBackEnergy        196370907480                       # Energy for active background per rank (pJ)
system.mem_ctrls1_1.preBackEnergy          7014229920                       # Energy for precharge background per rank (pJ)
system.mem_ctrls1_1.actPowerDownEnergy   1292741117040                       # Energy for active power-down per rank (pJ)
system.mem_ctrls1_1.prePowerDownEnergy   193403768640                       # Energy for precharge power-down per rank (pJ)
system.mem_ctrls1_1.selfRefreshEnergy      7307138715                       # Energy for self refresh per rank (pJ)
system.mem_ctrls1_1.totalEnergy          2080267200630                       # Total energy per rank (pJ)
system.mem_ctrls1_1.averagePower           546.570459                       # Core power per rank (mW)
system.mem_ctrls1_1.totalIdleTime        3357073715540                       # Total Idle time Per DRAM Rank
system.mem_ctrls1_1.memoryStateTime::IDLE   4206593682                       # Time in different power states
system.mem_ctrls1_1.memoryStateTime::REF 127759186000                       # Time in different power states
system.mem_ctrls1_1.memoryStateTime::SREF  18445965410                       # Time in different power states
system.mem_ctrls1_1.memoryStateTime::PRE_PDN 503664145621                       # Time in different power states
system.mem_ctrls1_1.memoryStateTime::ACT 316995692950                       # Time in different power states
system.mem_ctrls1_1.memoryStateTime::ACT_PDN 2834965046860                       # Time in different power states
system.pwrStateResidencyTicks::UNDEFINED 304176257385210                       # Cumulative time (in ticks) in various power states
system.cpu.branchPred.lookups                       2                       # Number of BP lookups
system.cpu.branchPred.condPredicted                 1                       # Number of conditional branches predicted
system.cpu.branchPred.condIncorrect                 1                       # Number of conditional branches incorrect
system.cpu.branchPred.BTBLookups                    0                       # Number of BTB lookups
system.cpu.branchPred.BTBHits                       0                       # Number of BTB hits
system.cpu.branchPred.BTBCorrect                    0                       # Number of correct BTB predictions (this stat may not work properly.
system.cpu.branchPred.BTBHitPct                   nan                       # BTB Hit Percentage
system.cpu.branchPred.usedRAS                       1                       # Number of times the RAS was used to get a target.
system.cpu.branchPred.RASInCorrect                  1                       # Number of incorrect RAS predictions.
system.cpu.branchPred.indirectLookups               0                       # Number of indirect predictor lookups.
system.cpu.branchPred.indirectHits                  0                       # Number of indirect target hits.
system.cpu.branchPred.indirectMisses                0                       # Number of indirect misses.
system.cpu.branchPredindirectMispredicted            0                       # Number of mispredicted indirect branches.
system.cpu_voltage_domain.voltage                   1                       # Voltage in Volts
system.cpu_clk_domain.clock                       333                       # Clock period in ticks
system.cpu.dtb.fetch_hits                           0                       # ITB hits
system.cpu.dtb.fetch_misses                         0                       # ITB misses
system.cpu.dtb.fetch_acv                            0                       # ITB acv
system.cpu.dtb.fetch_accesses                       0                       # ITB accesses
system.cpu.dtb.read_hits                            3                       # DTB read hits
system.cpu.dtb.read_misses                          0                       # DTB read misses
system.cpu.dtb.read_acv                             0                       # DTB read access violations
system.cpu.dtb.read_accesses                        3                       # DTB read accesses
system.cpu.dtb.write_hits                           0                       # DTB write hits
system.cpu.dtb.write_misses                         1                       # DTB write misses
system.cpu.dtb.write_acv                            0                       # DTB write access violations
system.cpu.dtb.write_accesses                       1                       # DTB write accesses
system.cpu.dtb.data_hits                            3                       # DTB hits
system.cpu.dtb.data_misses                          1                       # DTB misses
system.cpu.dtb.data_acv                             0                       # DTB access violations
system.cpu.dtb.data_accesses                        4                       # DTB accesses
system.cpu.itb.fetch_hits                           3                       # ITB hits
system.cpu.itb.fetch_misses                         1                       # ITB misses
system.cpu.itb.fetch_acv                            0                       # ITB acv
system.cpu.itb.fetch_accesses                       4                       # ITB accesses
system.cpu.itb.read_hits                            0                       # DTB read hits
system.cpu.itb.read_misses                          0                       # DTB read misses
system.cpu.itb.read_acv                             0                       # DTB read access violations
system.cpu.itb.read_accesses                        0                       # DTB read accesses
system.cpu.itb.write_hits                           0                       # DTB write hits
system.cpu.itb.write_misses                         0                       # DTB write misses
system.cpu.itb.write_acv                            0                       # DTB write access violations
system.cpu.itb.write_accesses                       0                       # DTB write accesses
system.cpu.itb.data_hits                            0                       # DTB hits
system.cpu.itb.data_misses                          0                       # DTB misses
system.cpu.itb.data_acv                             0                       # DTB access violations
system.cpu.itb.data_accesses                        0                       # DTB accesses
system.cpu.workload.num_syscalls                    0                       # Number of system calls
system.cpu.pwrStateResidencyTicks::ON    3806036630523                       # Cumulative time (in ticks) in various power states
system.cpu.numCycles                              708                       # number of cpu cycles simulated
system.cpu.numWorkItemsStarted                      0                       # number of work items this cpu started
system.cpu.numWorkItemsCompleted                    0                       # number of work items this cpu completed
system.cpu.fetch.icacheStallCycles                 26                       # Number of cycles fetch is stalled on an Icache miss
system.cpu.fetch.Insts                             10                       # Number of instructions fetch has processed
system.cpu.fetch.Branches                           2                       # Number of branches that fetch encountered
system.cpu.fetch.predictedBranches                  1                       # Number of branches that fetch has predicted taken
system.cpu.fetch.Cycles                             2                       # Number of cycles fetch has run and was not squashing or blocked
system.cpu.fetch.SquashCycles                       5                       # Number of cycles fetch has spent squashing
system.cpu.fetch.PendingDrainCycles                 3                       # Number of cycles fetch has spent waiting on pipes to drain
system.cpu.fetch.PendingTrapStallCycles             6                       # Number of stall cycles due to pending traps
system.cpu.fetch.CacheLines                         3                       # Number of cache lines fetched
system.cpu.fetch.IcacheSquashes                     2                       # Number of outstanding Icache misses that were squashed
system.cpu.fetch.rateDist::samples                 39                       # Number of instructions fetched each cycle (Total)
system.cpu.fetch.rateDist::mean              0.256410                       # Number of instructions fetched each cycle (Total)
system.cpu.fetch.rateDist::stdev             1.312249                       # Number of instructions fetched each cycle (Total)
system.cpu.fetch.rateDist::underflows               0      0.00%      0.00% # Number of instructions fetched each cycle (Total)
system.cpu.fetch.rateDist::0                       37     94.87%     94.87% # Number of instructions fetched each cycle (Total)
system.cpu.fetch.rateDist::1                        0      0.00%     94.87% # Number of instructions fetched each cycle (Total)
system.cpu.fetch.rateDist::2                        1      2.56%     97.44% # Number of instructions fetched each cycle (Total)
[...]
system.switch_cpus_1.iq.int_inst_queue_writes   3857974719                       # Number of integer instruction queue writes
system.switch_cpus_1.iq.int_inst_queue_wakeup_accesses   1673983389                       # Number of integer instruction queue wakeup accesses
system.switch_cpus_1.iq.fp_inst_queue_reads       700583                       # Number of floating instruction queue reads
system.switch_cpus_1.iq.fp_inst_queue_writes      1603271                       # Number of floating instruction queue writes
system.switch_cpus_1.iq.fp_inst_queue_wakeup_accesses       338933                       # Number of floating instruction queue wakeup accesses
system.switch_cpus_1.iq.int_alu_accesses   1892738037                       # Number of integer alu accesses
system.switch_cpus_1.iq.fp_alu_accesses        350289                       # Number of floating point alu accesses
system.switch_cpus_1.iew.lsq.thread0.forwLoads     39848787                       # Number of loads that had data forwarded from stores
system.switch_cpus_1.iew.lsq.thread0.invAddrLoads            0                       # Number of loads ignored due to an invalid address
system.switch_cpus_1.iew.lsq.thread0.squashedLoads    527588559                       # Number of loads squashed
system.switch_cpus_1.iew.lsq.thread0.ignoredResponses        61827                       # Number of memory responses ignored because the instruction is squashed
system.switch_cpus_1.iew.lsq.thread0.memOrderViolation         3871                       # Number of memory ordering violations
system.switch_cpus_1.iew.lsq.thread0.squashedStores    113174699                       # Number of stores squashed
system.switch_cpus_1.iew.lsq.thread0.invAddrSwpfs            0                       # Number of software prefetches ignored due to an invalid address
system.switch_cpus_1.iew.lsq.thread0.blockedLoads            0                       # Number of blocked loads due to partial load-store forwarding
system.switch_cpus_1.iew.lsq.thread0.rescheduledLoads            0                       # Number of loads that were rescheduled
system.switch_cpus_1.iew.lsq.thread0.cacheBlocked     32760956                       # Number of times an access to memory failed due to the cache being blocked
system.switch_cpus_1.iew.iewIdleCycles              0                       # Number of cycles IEW is idle
system.switch_cpus_1.iew.iewSquashCycles     25087073                       # Number of cycles IEW is squashing
system.switch_cpus_1.iew.iewBlockCycles     223674642                       # Number of cycles IEW is blocking
system.switch_cpus_1.iew.iewUnblockCycles    380284101                       # Number of cycles IEW is unblocking
system.switch_cpus_1.iew.iewDispatchedInsts   2179865560                       # Number of instructions dispatched to IQ
system.switch_cpus_1.iew.iewDispSquashedInsts       253060                       # Number of squashed instructions skipped by dispatch
system.switch_cpus_1.iew.iewDispLoadInsts    691925161                       # Number of dispatched load instructions
system.switch_cpus_1.iew.iewDispStoreInsts    152125579                       # Number of dispatched store instructions
system.switch_cpus_1.iew.iewDispNonSpecInsts        10525                       # Number of dispatched non-speculative instructions
system.switch_cpus_1.iew.iewIQFullEvents       253620                       # Number of times the IQ has become full, causing a stall
system.switch_cpus_1.iew.iewLSQFullEvents    382402646                       # Number of times the LSQ has become full, causing a stall
system.switch_cpus_1.iew.memOrderViolationEvents         3871                       # Number of memory order violations
system.switch_cpus_1.iew.predictedTakenIncorrect      8092251                       # Number of branches that were predicted taken incorrectly
system.switch_cpus_1.iew.predictedNotTakenIncorrect      6954249                       # Number of branches that were predicted not taken incorrectly
system.switch_cpus_1.iew.branchMispredicts     15046500                       # Number of branch mispredicts detected at execute
system.switch_cpus_1.iew.iewExecutedInsts   1831795216                       # Number of executed instructions
system.switch_cpus_1.iew.iewExecLoadInsts    638758482                       # Number of load instructions executed
system.switch_cpus_1.iew.iewExecSquashedInsts     26797501                       # Number of squashed instructions skipped in execute
system.switch_cpus_1.iew.exec_swp                   0                       # number of swp insts executed
system.switch_cpus_1.iew.exec_nop               78493                       # number of nop insts executed
system.switch_cpus_1.iew.exec_refs          773138512                       # number of memory reference insts executed
system.switch_cpus_1.iew.exec_branches      254809994                       # Number of branches executed
system.switch_cpus_1.iew.exec_stores        134380030                       # Number of stores executed
system.switch_cpus_1.iew.exec_rate           0.686782                       # Inst execution rate
system.switch_cpus_1.iew.wb_sent           1773286256                       # cumulative count of insts sent to commit
system.switch_cpus_1.iew.wb_count          1674322322                       # cumulative count of insts written-back
system.switch_cpus_1.iew.wb_producers      1033919642                       # num instructions producing a value
system.switch_cpus_1.iew.wb_consumers      1287033775                       # num instructions consuming a value
system.switch_cpus_1.iew.wb_rate             0.627742                       # insts written-back per cycle
system.switch_cpus_1.iew.wb_fanout           0.803335                       # average fanout of values written-back
system.switch_cpus_1.commit.commitSquashedInsts   1466229882                       # The number of squashed insts skipped by commit
system.switch_cpus_1.commit.commitNonSpecStalls         1464                       # The number of times commit has been forced to stall to communicate backwards
system.switch_cpus_1.commit.branchMispredicts     13382752                       # The number of times a branch was mispredicted
system.switch_cpus_1.commit.committed_per_cycle::samples   2454799058                       # Number of insts commited each cycle
system.switch_cpus_1.commit.committed_per_cycle::mean     0.203694                       # Number of insts commited each cycle
system.switch_cpus_1.commit.committed_per_cycle::stdev     1.043810                       # Number of insts commited each cycle
system.switch_cpus_1.commit.committed_per_cycle::underflows            0      0.00%      0.00% # Number of insts commited each cycle
system.switch_cpus_1.commit.committed_per_cycle::0   2312934944     94.22%     94.22% # Number of insts commited each cycle
system.switch_cpus_1.commit.committed_per_cycle::1     50999646      2.08%     96.30% # Number of insts commited each cycle
system.switch_cpus_1.commit.committed_per_cycle::2     21726970      0.89%     97.18% # Number of insts commited each cycle
system.switch_cpus_1.commit.committed_per_cycle::3      6494435      0.26%     97.45% # Number of insts commited each cycle
system.switch_cpus_1.commit.committed_per_cycle::4     20045057      0.82%     98.26% # Number of insts commited each cycle
system.switch_cpus_1.commit.committed_per_cycle::5      8371735      0.34%     98.61% # Number of insts commited each cycle
system.switch_cpus_1.commit.committed_per_cycle::6      2979164      0.12%     98.73% # Number of insts commited each cycle
system.switch_cpus_1.commit.committed_per_cycle::7      3798806      0.15%     98.88% # Number of insts commited each cycle
system.switch_cpus_1.commit.committed_per_cycle::8     27448301      1.12%    100.00% # Number of insts commited each cycle
system.switch_cpus_1.commit.committed_per_cycle::overflows            0      0.00%    100.00% # Number of insts commited each cycle
system.switch_cpus_1.commit.committed_per_cycle::min_value            0                       # Number of insts commited each cycle
system.switch_cpus_1.commit.committed_per_cycle::max_value            8                       # Number of insts commited each cycle
system.switch_cpus_1.commit.committed_per_cycle::total   2454799058                       # Number of insts commited each cycle
system.switch_cpus_1.commit.committedInsts    500028828                       # Number of instructions committed
system.switch_cpus_1.commit.committedOps    500028828                       # Number of ops (including micro ops) committed
system.switch_cpus_1.commit.swp_count               0                       # Number of s/w prefetches committed
system.switch_cpus_1.commit.refs            203287482                       # Number of memory references committed
system.switch_cpus_1.commit.loads           164336602                       # Number of loads committed
system.switch_cpus_1.commit.membars               732                       # Number of memory barriers committed
system.switch_cpus_1.commit.branches         79631949                       # Number of branches committed
system.switch_cpus_1.commit.fp_insts           208555                       # Number of committed floating point instructions.
system.switch_cpus_1.commit.int_insts       496384401                       # Number of committed integer instructions.
system.switch_cpus_1.commit.function_calls     15348670                       # Number of function calls committed.
system.switch_cpus_1.commit.op_class_0::No_OpClass        28826      0.01%      0.01% # Class of committed instruction
system.switch_cpus_1.commit.op_class_0::IntAlu    296504248     59.30%     59.30% # Class of committed instruction
system.switch_cpus_1.commit.op_class_0::IntMult         1248      0.00%     59.30% # Class of committed instruction
system.switch_cpus_1.commit.op_class_0::IntDiv            0      0.00%     59.30% # Class of committed instruction
system.switch_cpus_1.commit.op_class_0::FloatAdd        98636      0.02%     59.32% # Class of committed instruction
system.switch_cpus_1.commit.op_class_0::FloatCmp         5736      0.00%     59.32% # Class of committed instruction
system.switch_cpus_1.commit.op_class_0::FloatCvt        53018      0.01%     59.33% # Class of committed instruction
system.switch_cpus_1.commit.op_class_0::FloatMult        48902      0.01%     59.34% # Class of committed instruction
system.switch_cpus_1.commit.op_class_0::FloatMultAcc            0      0.00%     59.34% # Class of committed instruction
system.switch_cpus_1.commit.op_class_0::FloatDiv            0      0.00%     59.34% # Class of committed instruction
system.switch_cpus_1.commit.op_class_0::FloatMisc            0      0.00%     59.34% # Class of committed instruction
system.switch_cpus_1.commit.op_class_0::FloatSqrt            0      0.00%     59.34% # Class of committed instruction
system.switch_cpus_1.commit.op_class_0::SimdAdd            0      0.00%     59.34% # Class of committed instruction
system.switch_cpus_1.commit.op_class_0::SimdAddAcc            0      0.00%     59.34% # Class of committed instruction
system.switch_cpus_1.commit.op_class_0::SimdAlu            0      0.00%     59.34% # Class of committed instruction
system.switch_cpus_1.commit.op_class_0::SimdCmp            0      0.00%     59.34% # Class of committed instruction
system.switch_cpus_1.commit.op_class_0::SimdCvt            0      0.00%     59.34% # Class of committed instruction
system.switch_cpus_1.commit.op_class_0::SimdMisc            0      0.00%     59.34% # Class of committed instruction
system.switch_cpus_1.commit.op_class_0::SimdMult            0      0.00%     59.34% # Class of committed instruction
system.switch_cpus_1.commit.op_class_0::SimdMultAcc            0      0.00%     59.34% # Class of committed instruction
system.switch_cpus_1.commit.op_class_0::SimdShift            0      0.00%     59.34% # Class of committed instruction
system.switch_cpus_1.commit.op_class_0::SimdShiftAcc            0      0.00%     59.34% # Class of committed instruction
system.switch_cpus_1.commit.op_class_0::SimdSqrt            0      0.00%     59.34% # Class of committed instruction
system.switch_cpus_1.commit.op_class_0::SimdFloatAdd            0      0.00%     59.34% # Class of committed instruction
system.switch_cpus_1.commit.op_class_0::SimdFloatAlu            0      0.00%     59.34% # Class of committed instruction
system.switch_cpus_1.commit.op_class_0::SimdFloatCmp            0      0.00%     59.34% # Class of committed instruction
system.switch_cpus_1.commit.op_class_0::SimdFloatCvt            0      0.00%     59.34% # Class of committed instruction
system.switch_cpus_1.commit.op_class_0::SimdFloatDiv            0      0.00%     59.34% # Class of committed instruction
system.switch_cpus_1.commit.op_class_0::SimdFloatMisc            0      0.00%     59.34% # Class of committed instruction
system.switch_cpus_1.commit.op_class_0::SimdFloatMult            0      0.00%     59.34% # Class of committed instruction
system.switch_cpus_1.commit.op_class_0::SimdFloatMultAcc            0      0.00%     59.34% # Class of committed instruction
system.switch_cpus_1.commit.op_class_0::SimdFloatSqrt            0      0.00%     59.34% # Class of committed instruction
system.switch_cpus_1.commit.op_class_0::MemRead    164335487     32.87%     92.21% # Class of committed instruction
system.switch_cpus_1.commit.op_class_0::MemWrite     38950464      7.79%    100.00% # Class of committed instruction
system.switch_cpus_1.commit.op_class_0::FloatMemRead         1847      0.00%    100.00% # Class of committed instruction
system.switch_cpus_1.commit.op_class_0::FloatMemWrite          416      0.00%    100.00% # Class of committed instruction
system.switch_cpus_1.commit.op_class_0::IprAccess            0      0.00%    100.00% # Class of committed instruction
system.switch_cpus_1.commit.op_class_0::InstPrefetch            0      0.00%    100.00% # Class of committed instruction
system.switch_cpus_1.commit.op_class_0::total    500028828                       # Class of committed instruction
system.switch_cpus_1.commit.bw_lim_events     27448301                       # number cycles where commit BW limit reached
system.switch_cpus_1.rob.rob_reads         4241491397                       # The number of ROB reads
system.switch_cpus_1.rob.rob_writes        4144950290                       # The number of ROB writes
system.switch_cpus_1.timesIdled                   130                       # Number of times that the entire CPU went into an idle state and unscheduled itself
system.switch_cpus_1.idleCycles                 12540                       # Total number of cycles that the CPU has spent unscheduled due to idling
system.switch_cpus_1.committedInsts         500000002                       # Number of Instructions Simulated
system.switch_cpus_1.committedOps           500000002                       # Number of Ops (including micro ops) Simulated
system.switch_cpus_1.cpi                     5.334432                       # CPI: Cycles Per Instruction
system.switch_cpus_1.cpi_total               5.334432                       # CPI: Total CPI of All Threads
system.switch_cpus_1.ipc                     0.187461                       # IPC: Instructions Per Cycle
system.switch_cpus_1.ipc_total               0.187461                       # IPC: Total IPC of All Threads
system.switch_cpus_1.int_regfile_reads     2368625182                       # number of integer regfile reads
system.switch_cpus_1.int_regfile_writes    1393459876                       # number of integer regfile writes
system.switch_cpus_1.fp_regfile_reads          438207                       # number of floating regfile reads
system.switch_cpus_1.fp_regfile_writes         334499                       # number of floating regfile writes
system.switch_cpus_1.misc_regfile_reads          1647                       # number of misc regfile reads
system.switch_cpus_1.misc_regfile_writes         1464                       # number of misc regfile writes
system.tol3bus.snoop_filter.tot_requests     95721348                       # Total number of requests made to the snoop filter.
system.tol3bus.snoop_filter.hit_single_requests     47858546                       # Number of requests hitting in the snoop filter with a single holder of the requested data.
system.tol3bus.snoop_filter.hit_multi_requests            0                       # Number of requests hitting in the snoop filter with multiple (>1) holders of the requested data.
system.tol3bus.snoop_filter.tot_snoops           1534                       # Total number of snoops made to the snoop filter.
system.tol3bus.snoop_filter.hit_single_snoops         1534                       # Number of snoops hitting in the snoop filter with a single holder of the requested data.
system.tol3bus.snoop_filter.hit_multi_snoops            0                       # Number of snoops hitting in the snoop filter with multiple (>1) holders of the requested data.
system.tol3bus.pwrStateResidencyTicks::UNDEFINED 304176257385210                       # Cumulative time (in ticks) in various power states
system.tol3bus.trans_dist::ReadResp          24720512                       # Transaction distribution
system.tol3bus.trans_dist::WritebackDirty     40135602                       # Transaction distribution
system.tol3bus.trans_dist::CleanEvict        21510143                       # Transaction distribution
system.tol3bus.trans_dist::ReadExReq         23142290                       # Transaction distribution
system.tol3bus.trans_dist::ReadExResp        23142290                       # Transaction distribution
system.tol3bus.trans_dist::ReadSharedReq     24720512                       # Transaction distribution
system.tol3bus.pkt_count_system.cpu.l2.mem_side::system.l3.cpu_side    143584150                       # Packet count per connected master and slave (bytes)
system.tol3bus.pkt_size_system.cpu.l2.mem_side::system.l3.cpu_side   5220541312                       # Cumulative packet size per connected master and slave (bytes)
system.tol3bus.snoops                        13787199                       # Total snoops (count)
system.tol3bus.snoopTraffic                 411356544                       # Total snoop traffic (bytes)
system.tol3bus.snoop_fanout::samples         61650001                       # Request fanout histogram
system.tol3bus.snoop_fanout::mean            0.000025                       # Request fanout histogram
system.tol3bus.snoop_fanout::stdev           0.004988                       # Request fanout histogram
system.tol3bus.snoop_fanout::underflows             0      0.00%      0.00% # Request fanout histogram
system.tol3bus.snoop_fanout::0               61648467    100.00%    100.00% # Request fanout histogram
system.tol3bus.snoop_fanout::1                   1534      0.00%    100.00% # Request fanout histogram
system.tol3bus.snoop_fanout::overflows              0      0.00%    100.00% # Request fanout histogram
system.tol3bus.snoop_fanout::min_value              0                       # Request fanout histogram
system.tol3bus.snoop_fanout::max_value              1                       # Request fanout histogram
system.tol3bus.snoop_fanout::total           61650001                       # Request fanout histogram
system.tol3bus.reqLayer0.occupancy        43100024832                       # Layer occupancy (ticks)
system.tol3bus.reqLayer0.utilization              1.1                       # Layer utilization (%)
system.tol3bus.respLayer0.occupancy       31876626132                       # Layer occupancy (ticks)
system.tol3bus.respLayer0.utilization             0.8                       # Layer utilization (%)

---------- End Simulation Statistics   ----------
