
---------- Begin Simulation Statistics ----------
sim_seconds                                  1.190669                       # Number of seconds simulated
sim_ticks                                1190668540133                       # Number of ticks simulated
final_tick                               191241978455133                       # Number of ticks from beginning of simulation (restored from checkpoints and never reset)
sim_freq                                 1000000000000                       # Frequency of simulated ticks
host_inst_rate                                 406517                       # Simulator instruction rate (inst/s)
host_op_rate                                   406517                       # Simulator op (including micro ops) rate (op/s)
host_tick_rate                              403355774                       # Simulator tick rate (ticks/s)
host_mem_usage                                2538048                       # Number of bytes of host memory used
host_seconds                                  2951.91                       # Real time elapsed on the host
sim_insts                                  1200000007                       # Number of instructions simulated
sim_ops                                    1200000007                       # Number of ops (including micro ops) simulated
system.voltage_domain.voltage                       1                       # Voltage in Volts
system.clk_domain.clock                          1000                       # Clock period in ticks
system.mem_ctrls0.pwrStateResidencyTicks::UNDEFINED 191241978455133                       # Cumulative time (in ticks) in various power states
system.mem_ctrls0.bytes_read::cpu.inst            192                       # Number of bytes read from this memory
system.mem_ctrls0.bytes_read::cpu.data            192                       # Number of bytes read from this memory
system.mem_ctrls0.bytes_read::switch_cpus.inst        12992                       # Number of bytes read from this memory
system.mem_ctrls0.bytes_read::switch_cpus.data     20802752                       # Number of bytes read from this memory
system.mem_ctrls0.bytes_read::switch_cpus_1.inst          320                       # Number of bytes read from this memory
system.mem_ctrls0.bytes_read::switch_cpus_1.data      4657344                       # Number of bytes read from this memory
system.mem_ctrls0.bytes_read::total          25473792                       # Number of bytes read from this memory
system.mem_ctrls0.bytes_inst_read::cpu.inst          192                       # Number of instructions bytes read from this memory
system.mem_ctrls0.bytes_inst_read::switch_cpus.inst        12992                       # Number of instructions bytes read from this memory
system.mem_ctrls0.bytes_inst_read::switch_cpus_1.inst          320                       # Number of instructions bytes read from this memory
system.mem_ctrls0.bytes_inst_read::total        13504                       # Number of instructions bytes read from this memory
system.mem_ctrls0.bytes_written::writebacks     16551488                       # Number of bytes written to this memory
system.mem_ctrls0.bytes_written::total       16551488                       # Number of bytes written to this memory
system.mem_ctrls0.num_reads::cpu.inst               3                       # Number of read requests responded to by this memory
system.mem_ctrls0.num_reads::cpu.data               3                       # Number of read requests responded to by this memory
system.mem_ctrls0.num_reads::switch_cpus.inst          203                       # Number of read requests responded to by this memory
system.mem_ctrls0.num_reads::switch_cpus.data       325043                       # Number of read requests responded to by this memory
system.mem_ctrls0.num_reads::switch_cpus_1.inst            5                       # Number of read requests responded to by this memory
system.mem_ctrls0.num_reads::switch_cpus_1.data        72771                       # Number of read requests responded to by this memory
system.mem_ctrls0.num_reads::total             398028                       # Number of read requests responded to by this memory
system.mem_ctrls0.num_writes::writebacks       258617                       # Number of write requests responded to by this memory
system.mem_ctrls0.num_writes::total            258617                       # Number of write requests responded to by this memory
system.mem_ctrls0.bw_read::cpu.inst               161                       # Total read bandwidth from this memory (bytes/s)
system.mem_ctrls0.bw_read::cpu.data               161                       # Total read bandwidth from this memory (bytes/s)
system.mem_ctrls0.bw_read::switch_cpus.inst        10912                       # Total read bandwidth from this memory (bytes/s)
system.mem_ctrls0.bw_read::switch_cpus.data     17471489                       # Total read bandwidth from this memory (bytes/s)
system.mem_ctrls0.bw_read::switch_cpus_1.inst          269                       # Total read bandwidth from this memory (bytes/s)
system.mem_ctrls0.bw_read::switch_cpus_1.data      3911537                       # Total read bandwidth from this memory (bytes/s)
system.mem_ctrls0.bw_read::total             21394528                       # Total read bandwidth from this memory (bytes/s)
system.mem_ctrls0.bw_inst_read::cpu.inst          161                       # Instruction read bandwidth from this memory (bytes/s)
system.mem_ctrls0.bw_inst_read::switch_cpus.inst        10912                       # Instruction read bandwidth from this memory (bytes/s)
system.mem_ctrls0.bw_inst_read::switch_cpus_1.inst          269                       # Instruction read bandwidth from this memory (bytes/s)
system.mem_ctrls0.bw_inst_read::total           11342                       # Instruction read bandwidth from this memory (bytes/s)
system.mem_ctrls0.bw_write::writebacks       13901004                       # Write bandwidth from this memory (bytes/s)
system.mem_ctrls0.bw_write::total            13901004                       # Write bandwidth from this memory (bytes/s)
system.mem_ctrls0.bw_total::writebacks       13901004                       # Total bandwidth to/from this memory (bytes/s)
system.mem_ctrls0.bw_total::cpu.inst              161                       # Total bandwidth to/from this memory (bytes/s)
system.mem_ctrls0.bw_total::cpu.data              161                       # Total bandwidth to/from this memory (bytes/s)
system.mem_ctrls0.bw_total::switch_cpus.inst        10912                       # Total bandwidth to/from this memory (bytes/s)
system.mem_ctrls0.bw_total::switch_cpus.data     17471489                       # Total bandwidth to/from this memory (bytes/s)
system.mem_ctrls0.bw_total::switch_cpus_1.inst          269                       # Total bandwidth to/from this memory (bytes/s)
system.mem_ctrls0.bw_total::switch_cpus_1.data      3911537                       # Total bandwidth to/from this memory (bytes/s)
system.mem_ctrls0.bw_total::total            35295532                       # Total bandwidth to/from this memory (bytes/s)
system.mem_ctrls0.readReqs                     398028                       # Number of read requests accepted
system.mem_ctrls0.writeReqs                    258617                       # Number of write requests accepted
system.mem_ctrls0.readBursts                   398028                       # Number of DRAM read bursts, including those serviced by the write queue
system.mem_ctrls0.writeBursts                  258617                       # Number of DRAM write bursts, including those merged in the write queue
system.mem_ctrls0.bytesReadDRAM              25416128                       # Total number of bytes read from DRAM
system.mem_ctrls0.bytesReadWrQ                  57664                       # Total number of bytes read from write queue
system.mem_ctrls0.bytesWritten               16550016                       # Total number of bytes written to DRAM
system.mem_ctrls0.bytesReadSys               25473792                       # Total read bytes from the system interface side
system.mem_ctrls0.bytesWrittenSys            16551488                       # Total written bytes from the system interface side
system.mem_ctrls0.servicedByWrQ                   901                       # Number of DRAM read bursts serviced by the write queue
system.mem_ctrls0.mergedWrBursts                    0                       # Number of DRAM write bursts merged with an existing one
system.mem_ctrls0.neitherReadNorWriteReqs            0                       # Number of requests that are neither read nor write
system.mem_ctrls0.perBankRdBursts::0            25996                       # Per bank write bursts
system.mem_ctrls0.perBankRdBursts::1            25494                       # Per bank write bursts
system.mem_ctrls0.perBankRdBursts::2            26100                       # Per bank write bursts
system.mem_ctrls0.perBankRdBursts::3            25286                       # Per bank write bursts
system.mem_ctrls0.perBankRdBursts::4            23261                       # Per bank write bursts
system.mem_ctrls0.perBankRdBursts::5            24138                       # Per bank write bursts
system.mem_ctrls0.perBankRdBursts::6            24365                       # Per bank write bursts
system.mem_ctrls0.perBankRdBursts::7            25250                       # Per bank write bursts
system.mem_ctrls0.perBankRdBursts::8            25881                       # Per bank write bursts
system.mem_ctrls0.perBankRdBursts::9            24497                       # Per bank write bursts
system.mem_ctrls0.perBankRdBursts::10           24753                       # Per bank write bursts
system.mem_ctrls0.perBankRdBursts::11           24442                       # Per bank write bursts
system.mem_ctrls0.perBankRdBursts::12           23191                       # Per bank write bursts
system.mem_ctrls0.perBankRdBursts::13           24145                       # Per bank write bursts
system.mem_ctrls0.perBankRdBursts::14           24524                       # Per bank write bursts
system.mem_ctrls0.perBankRdBursts::15           25804                       # Per bank write bursts
system.mem_ctrls0.perBankWrBursts::0            16933                       # Per bank write bursts
system.mem_ctrls0.perBankWrBursts::1            16711                       # Per bank write bursts
system.mem_ctrls0.perBankWrBursts::2            17037                       # Per bank write bursts
system.mem_ctrls0.perBankWrBursts::3            16349                       # Per bank write bursts
system.mem_ctrls0.perBankWrBursts::4            14720                       # Per bank write bursts
system.mem_ctrls0.perBankWrBursts::5            15709                       # Per bank write bursts
system.mem_ctrls0.perBankWrBursts::6            15949                       # Per bank write bursts
system.mem_ctrls0.perBankWrBursts::7            16590                       # Per bank write bursts
system.mem_ctrls0.perBankWrBursts::8            16893                       # Per bank write bursts
system.mem_ctrls0.perBankWrBursts::9            16081                       # Per bank write bursts
system.mem_ctrls0.perBankWrBursts::10           16042                       # Per bank write bursts
system.mem_ctrls0.perBankWrBursts::11           15897                       # Per bank write bursts
system.mem_ctrls0.perBankWrBursts::12           15212                       # Per bank write bursts
system.mem_ctrls0.perBankWrBursts::13           15595                       # Per bank write bursts
system.mem_ctrls0.perBankWrBursts::14           15882                       # Per bank write bursts
system.mem_ctrls0.perBankWrBursts::15           16994                       # Per bank write bursts
system.mem_ctrls0.numRdRetry                        0                       # Number of times read queue was full causing retry
system.mem_ctrls0.numWrRetry                        0                       # Number of times write queue was full causing retry
system.mem_ctrls0.totGap                 1190417975415                       # Total gap between requests
system.mem_ctrls0.readPktSize::0                    0                       # Read request sizes (log2)
system.mem_ctrls0.readPktSize::1                    0                       # Read request sizes (log2)
system.mem_ctrls0.readPktSize::2                    0                       # Read request sizes (log2)
system.mem_ctrls0.readPktSize::3                    0                       # Read request sizes (log2)
system.mem_ctrls0.readPktSize::4                    0                       # Read request sizes (log2)
system.mem_ctrls0.readPktSize::5                    0                       # Read request sizes (log2)
system.mem_ctrls0.readPktSize::6               398028                       # Read request sizes (log2)
system.mem_ctrls0.writePktSize::0                   0                       # Write request sizes (log2)
system.mem_ctrls0.writePktSize::1                   0                       # Write request sizes (log2)
system.mem_ctrls0.writePktSize::2                   0                       # Write request sizes (log2)
system.mem_ctrls0.writePktSize::3                   0                       # Write request sizes (log2)
system.mem_ctrls0.writePktSize::4                   0                       # Write request sizes (log2)
system.mem_ctrls0.writePktSize::5                   0                       # Write request sizes (log2)
system.mem_ctrls0.writePktSize::6              258617                       # Write request sizes (log2)
system.mem_ctrls0.rdQLenPdf::0                 389493                       # What read queue length does an incoming req see
system.mem_ctrls0.rdQLenPdf::1                   7410                       # What read queue length does an incoming req see
system.mem_ctrls0.rdQLenPdf::2                    198                       # What read queue length does an incoming req see
system.mem_ctrls0.rdQLenPdf::3                     25                       # What read queue length does an incoming req see
system.mem_ctrls0.rdQLenPdf::4                      1                       # What read queue length does an incoming req see
system.mem_ctrls0.rdQLenPdf::5                      0                       # What read queue length does an incoming req see
system.mem_ctrls0.rdQLenPdf::6                      0                       # What read queue length does an incoming req see
system.mem_ctrls0.rdQLenPdf::7                      0                       # What read queue length does an incoming req see
system.mem_ctrls0.rdQLenPdf::8                      0                       # What read queue length does an incoming req see
system.mem_ctrls0.rdQLenPdf::9                      0                       # What read queue length does an incoming req see
system.mem_ctrls0.rdQLenPdf::10                     0                       # What read queue length does an incoming req see
system.mem_ctrls0.rdQLenPdf::11                     0                       # What read queue length does an incoming req see
system.mem_ctrls0.rdQLenPdf::12                     0                       # What read queue length does an incoming req see
system.mem_ctrls0.rdQLenPdf::13                     0                       # What read queue length does an incoming req see
system.mem_ctrls0.rdQLenPdf::14                     0                       # What read queue length does an incoming req see
system.mem_ctrls0.rdQLenPdf::15                     0                       # What read queue length does an incoming req see
system.mem_ctrls0.rdQLenPdf::16                     0                       # What read queue length does an incoming req see
system.mem_ctrls0.rdQLenPdf::17                     0                       # What read queue length does an incoming req see
system.mem_ctrls0.rdQLenPdf::18                     0                       # What read queue length does an incoming req see
system.mem_ctrls0.rdQLenPdf::19                     0                       # What read queue length does an incoming req see
system.mem_ctrls0.rdQLenPdf::20                     0                       # What read queue length does an incoming req see
system.mem_ctrls0.rdQLenPdf::21                     0                       # What read queue length does an incoming req see
system.mem_ctrls0.rdQLenPdf::22                     0                       # What read queue length does an incoming req see
system.mem_ctrls0.rdQLenPdf::23                     0                       # What read queue length does an incoming req see
system.mem_ctrls0.rdQLenPdf::24                     0                       # What read queue length does an incoming req see
system.mem_ctrls0.rdQLenPdf::25                     0                       # What read queue length does an incoming req see
system.mem_ctrls0.rdQLenPdf::26                     0                       # What read queue length does an incoming req see
system.mem_ctrls0.rdQLenPdf::27                     0                       # What read queue length does an incoming req see
system.mem_ctrls0.rdQLenPdf::28                     0                       # What read queue length does an incoming req see
system.mem_ctrls0.rdQLenPdf::29                     0                       # What read queue length does an incoming req see
system.mem_ctrls0.rdQLenPdf::30                     0                       # What read queue length does an incoming req see
system.mem_ctrls0.rdQLenPdf::31                     0                       # What read queue length does an incoming req see
system.mem_ctrls0.wrQLenPdf::0                      2                       # What write queue length does an incoming req see
system.mem_ctrls0.wrQLenPdf::1                      2                       # What write queue length does an incoming req see
system.mem_ctrls0.wrQLenPdf::2                      2                       # What write queue length does an incoming req see
system.mem_ctrls0.wrQLenPdf::3                      2                       # What write queue length does an incoming req see
system.mem_ctrls0.wrQLenPdf::4                      2                       # What write queue length does an incoming req see
system.mem_ctrls0.wrQLenPdf::5                      2                       # What write queue length does an incoming req see
system.mem_ctrls0.wrQLenPdf::6                      2                       # What write queue length does an incoming req see
system.mem_ctrls0.wrQLenPdf::7                      2                       # What write queue length does an incoming req see
system.mem_ctrls0.wrQLenPdf::8                      2                       # What write queue length does an incoming req see
system.mem_ctrls0.wrQLenPdf::9                      2                       # What write queue length does an incoming req see
system.mem_ctrls0.wrQLenPdf::10                     2                       # What write queue length does an incoming req see
system.mem_ctrls0.wrQLenPdf::11                     2                       # What write queue length does an incoming req see
system.mem_ctrls0.wrQLenPdf::12                     2                       # What write queue length does an incoming req see
system.mem_ctrls0.wrQLenPdf::13                     2                       # What write queue length does an incoming req see
system.mem_ctrls0.wrQLenPdf::14                     2                       # What write queue length does an incoming req see
system.mem_ctrls0.wrQLenPdf::15                 10905                       # What write queue length does an incoming req see
system.mem_ctrls0.wrQLenPdf::16                 11170                       # What write queue length does an incoming req see
system.mem_ctrls0.wrQLenPdf::17                 14260                       # What write queue length does an incoming req see
system.mem_ctrls0.wrQLenPdf::18                 14752                       # What write queue length does an incoming req see
system.mem_ctrls0.wrQLenPdf::19                 14814                       # What write queue length does an incoming req see
system.mem_ctrls0.wrQLenPdf::20                 14815                       # What write queue length does an incoming req see
system.mem_ctrls0.wrQLenPdf::21                 14824                       # What write queue length does an incoming req see
system.mem_ctrls0.wrQLenPdf::22                 14839                       # What write queue length does an incoming req see
system.mem_ctrls0.wrQLenPdf::23                 14838                       # What write queue length does an incoming req see
system.mem_ctrls0.wrQLenPdf::24                 14869                       # What write queue length does an incoming req see
system.mem_ctrls0.wrQLenPdf::25                 14837                       # What write queue length does an incoming req see
system.mem_ctrls0.wrQLenPdf::26                 14819                       # What write queue length does an incoming req see
system.mem_ctrls0.wrQLenPdf::27                 14812                       # What write queue length does an incoming req see
system.mem_ctrls0.wrQLenPdf::28                 14833                       # What write queue length does an incoming req see
system.mem_ctrls0.wrQLenPdf::29                 14916                       # What write queue length does an incoming req see
system.mem_ctrls0.wrQLenPdf::30                 14797                       # What write queue length does an incoming req see
system.mem_ctrls0.wrQLenPdf::31                 14717                       # What write queue length does an incoming req see
system.mem_ctrls0.wrQLenPdf::32                 14702                       # What write queue length does an incoming req see
system.mem_ctrls0.wrQLenPdf::33                    61                       # What write queue length does an incoming req see
system.mem_ctrls0.wrQLenPdf::34                     6                       # What write queue length does an incoming req see
system.mem_ctrls0.wrQLenPdf::35                     1                       # What write queue length does an incoming req see
system.mem_ctrls0.wrQLenPdf::36                     0                       # What write queue length does an incoming req see
system.mem_ctrls0.wrQLenPdf::37                     0                       # What write queue length does an incoming req see
system.mem_ctrls0.wrQLenPdf::38                     0                       # What write queue length does an incoming req see
system.mem_ctrls0.wrQLenPdf::39                     0                       # What write queue length does an incoming req see
system.mem_ctrls0.wrQLenPdf::40                     0                       # What write queue length does an incoming req see
system.mem_ctrls0.wrQLenPdf::41                     0                       # What write queue length does an incoming req see
system.mem_ctrls0.wrQLenPdf::42                     0                       # What write queue length does an incoming req see
system.mem_ctrls0.wrQLenPdf::43                     0                       # What write queue length does an incoming req see
system.mem_ctrls0.wrQLenPdf::44                     0                       # What write queue length does an incoming req see
system.mem_ctrls0.wrQLenPdf::45                     0                       # What write queue length does an incoming req see
system.mem_ctrls0.wrQLenPdf::46                     0                       # What write queue length does an incoming req see
system.mem_ctrls0.wrQLenPdf::47                     0                       # What write queue length does an incoming req see
system.mem_ctrls0.wrQLenPdf::48                     0                       # What write queue length does an incoming req see
system.mem_ctrls0.wrQLenPdf::49                     0                       # What write queue length does an incoming req see
system.mem_ctrls0.wrQLenPdf::50                     0                       # What write queue length does an incoming req see
system.mem_ctrls0.wrQLenPdf::51                     0                       # What write queue length does an incoming req see
system.mem_ctrls0.wrQLenPdf::52                     0                       # What write queue length does an incoming req see
system.mem_ctrls0.wrQLenPdf::53                     0                       # What write queue length does an incoming req see
system.mem_ctrls0.wrQLenPdf::54                     0                       # What write queue length does an incoming req see
system.mem_ctrls0.wrQLenPdf::55                     0                       # What write queue length does an incoming req see
system.mem_ctrls0.wrQLenPdf::56                     0                       # What write queue length does an incoming req see
system.mem_ctrls0.wrQLenPdf::57                     0                       # What write queue length does an incoming req see
system.mem_ctrls0.wrQLenPdf::58                     0                       # What write queue length does an incoming req see
system.mem_ctrls0.wrQLenPdf::59                     0                       # What write queue length does an incoming req see
system.mem_ctrls0.wrQLenPdf::60                     0                       # What write queue length does an incoming req see
system.mem_ctrls0.wrQLenPdf::61                     0                       # What write queue length does an incoming req see
system.mem_ctrls0.wrQLenPdf::62                     0                       # What write queue length does an incoming req see
system.mem_ctrls0.wrQLenPdf::63                     0                       # What write queue length does an incoming req see
system.mem_ctrls0.bytesPerActivate::samples       406711                       # Bytes accessed per row activation
system.mem_ctrls0.bytesPerActivate::mean   103.184187                       # Bytes accessed per row activation
system.mem_ctrls0.bytesPerActivate::gmean    83.250035                       # Bytes accessed per row activation
system.mem_ctrls0.bytesPerActivate::stdev   110.682361                       # Bytes accessed per row activation
system.mem_ctrls0.bytesPerActivate::0-127       307946     75.72%     75.72% # Bytes accessed per row activation
system.mem_ctrls0.bytesPerActivate::128-255        69646     17.12%     92.84% # Bytes accessed per row activation
system.mem_ctrls0.bytesPerActivate::256-383        15291      3.76%     96.60% # Bytes accessed per row activation
system.mem_ctrls0.bytesPerActivate::384-511         7071      1.74%     98.34% # Bytes accessed per row activation
system.mem_ctrls0.bytesPerActivate::512-639         2322      0.57%     98.91% # Bytes accessed per row activation
system.mem_ctrls0.bytesPerActivate::640-767         1126      0.28%     99.19% # Bytes accessed per row activation
system.mem_ctrls0.bytesPerActivate::768-895          786      0.19%     99.38% # Bytes accessed per row activation
system.mem_ctrls0.bytesPerActivate::896-1023          590      0.15%     99.52% # Bytes accessed per row activation
system.mem_ctrls0.bytesPerActivate::1024-1151         1933      0.48%    100.00% # Bytes accessed per row activation
system.mem_ctrls0.bytesPerActivate::total       406711                       # Bytes accessed per row activation
system.mem_ctrls0.rdPerTurnAround::samples        14696                       # Reads before turning the bus around for writes
system.mem_ctrls0.rdPerTurnAround::mean     27.021570                       # Reads before turning the bus around for writes
system.mem_ctrls0.rdPerTurnAround::stdev   238.510400                       # Reads before turning the bus around for writes
system.mem_ctrls0.rdPerTurnAround::0-1023        14695     99.99%     99.99% # Reads before turning the bus around for writes
system.mem_ctrls0.rdPerTurnAround::28672-29695            1      0.01%    100.00% # Reads before turning the bus around for writes
system.mem_ctrls0.rdPerTurnAround::total        14696                       # Reads before turning the bus around for writes
system.mem_ctrls0.wrPerTurnAround::samples        14696                       # Writes before turning the bus around for reads
system.mem_ctrls0.wrPerTurnAround::mean     17.596217                       # Writes before turning the bus around for reads
system.mem_ctrls0.wrPerTurnAround::gmean    17.568496                       # Writes before turning the bus around for reads
system.mem_ctrls0.wrPerTurnAround::stdev     0.976483                       # Writes before turning the bus around for reads
system.mem_ctrls0.wrPerTurnAround::16            3575     24.33%     24.33% # Writes before turning the bus around for reads
system.mem_ctrls0.wrPerTurnAround::17             168      1.14%     25.47% # Writes before turning the bus around for reads
system.mem_ctrls0.wrPerTurnAround::18            9769     66.47%     91.94% # Writes before turning the bus around for reads
system.mem_ctrls0.wrPerTurnAround::19            1038      7.06%     99.01% # Writes before turning the bus around for reads
system.mem_ctrls0.wrPerTurnAround::20             108      0.73%     99.74% # Writes before turning the bus around for reads
system.mem_ctrls0.wrPerTurnAround::21              28      0.19%     99.93% # Writes before turning the bus around for reads
system.mem_ctrls0.wrPerTurnAround::22               6      0.04%     99.97% # Writes before turning the bus around for reads
system.mem_ctrls0.wrPerTurnAround::23               2      0.01%     99.99% # Writes before turning the bus around for reads
system.mem_ctrls0.wrPerTurnAround::24               2      0.01%    100.00% # Writes before turning the bus around for reads
system.mem_ctrls0.wrPerTurnAround::total        14696                       # Writes before turning the bus around for reads
system.mem_ctrls0.totQLat                 18762598764                       # Total ticks spent queuing
system.mem_ctrls0.totMemAccLat            26208730014                       # Total ticks spent from burst creation until serviced by the DRAM
system.mem_ctrls0.totBusLat                1985635000                       # Total ticks spent in databus transfers
system.mem_ctrls0.avgQLat                    47245.84                       # Average queueing delay per DRAM burst
system.mem_ctrls0.avgBusLat                   5000.00                       # Average bus latency per DRAM burst
system.mem_ctrls0.avgMemAccLat               65995.84                       # Average memory access latency per DRAM burst
system.mem_ctrls0.avgRdBW                       21.35                       # Average DRAM read bandwidth in MiByte/s
system.mem_ctrls0.avgWrBW                       13.90                       # Average achieved write bandwidth in MiByte/s
system.mem_ctrls0.avgRdBWSys                    21.39                       # Average system read bandwidth in MiByte/s
system.mem_ctrls0.avgWrBWSys                    13.90                       # Average system write bandwidth in MiByte/s
system.mem_ctrls0.peakBW                     12800.00                       # Theoretical peak bandwidth in MiByte/s
system.mem_ctrls0.busUtil                        0.28                       # Data bus utilization in percentage
system.mem_ctrls0.busUtilRead                    0.17                       # Data bus utilization in percentage for reads
system.mem_ctrls0.busUtilWrite                   0.11                       # Data bus utilization in percentage for writes
system.mem_ctrls0.avgRdQLen                      1.00                       # Average read queue length when enqueuing
system.mem_ctrls0.avgWrQLen                     23.35                       # Average write queue length when enqueuing
system.mem_ctrls0.readRowHits                  194048                       # Number of row buffer hits during reads
system.mem_ctrls0.writeRowHits                  54962                       # Number of row buffer hits during writes
system.mem_ctrls0.readRowHitRate                48.86                       # Row buffer hit rate for reads
system.mem_ctrls0.writeRowHitRate               21.25                       # Row buffer hit rate for writes
system.mem_ctrls0.avgGap                   1812879.07                       # Average gap between requests
system.mem_ctrls0.pageHitRate                   37.97                       # Row buffer hit rate, read and write combined
system.mem_ctrls0_0.actEnergy              1460665500                       # Energy for activate commands per rank (pJ)
system.mem_ctrls0_0.preEnergy               776362125                       # Energy for precharge commands per rank (pJ)
system.mem_ctrls0_0.readEnergy             1427214600                       # Energy for read commands per rank (pJ)
system.mem_ctrls0_0.writeEnergy             678589560                       # Energy for write commands per rank (pJ)
system.mem_ctrls0_0.refreshEnergy        42716250720.000008                       # Energy for refresh commands per rank (pJ)
system.mem_ctrls0_0.actBackEnergy         24196505700                       # Energy for active background per rank (pJ)
system.mem_ctrls0_0.preBackEnergy          2084316960                       # Energy for precharge background per rank (pJ)
system.mem_ctrls0_0.actPowerDownEnergy   112190268810                       # Energy for active power-down per rank (pJ)
system.mem_ctrls0_0.prePowerDownEnergy    55553305920                       # Energy for precharge power-down per rank (pJ)
system.mem_ctrls0_0.selfRefreshEnergy    184959989505                       # Energy for self refresh per rank (pJ)
system.mem_ctrls0_0.totalEnergy          426055130250                       # Total energy per rank (pJ)
system.mem_ctrls0_0.averagePower           357.828492                       # Core power per rank (mW)
system.mem_ctrls0_0.totalIdleTime        1131896416155                       # Total Idle time Per DRAM Rank
system.mem_ctrls0_0.memoryStateTime::IDLE   3691075244                       # Time in different power states
system.mem_ctrls0_0.memoryStateTime::REF  18147084000                       # Time in different power states
system.mem_ctrls0_0.memoryStateTime::SREF 741450890883                       # Time in different power states
system.mem_ctrls0_0.memoryStateTime::PRE_PDN 144669402050                       # Time in different power states
system.mem_ctrls0_0.memoryStateTime::ACT  36679157101                       # Time in different power states
system.mem_ctrls0_0.memoryStateTime::ACT_PDN 246030930855                       # Time in different power states
system.mem_ctrls0_1.actEnergy              1443251040                       # Energy for activate commands per rank (pJ)
system.mem_ctrls0_1.preEnergy               767106120                       # Energy for precharge commands per rank (pJ)
system.mem_ctrls0_1.readEnergy             1408272180                       # Energy for read commands per rank (pJ)
system.mem_ctrls0_1.writeEnergy             671271120                       # Energy for write commands per rank (pJ)
system.mem_ctrls0_1.refreshEnergy        43718113920.000008                       # Energy for refresh commands per rank (pJ)
system.mem_ctrls0_1.actBackEnergy         24188791890                       # Energy for active background per rank (pJ)
system.mem_ctrls0_1.preBackEnergy          2112678240                       # Energy for precharge background per rank (pJ)
system.mem_ctrls0_1.actPowerDownEnergy   115059012690                       # Energy for active power-down per rank (pJ)
system.mem_ctrls0_1.prePowerDownEnergy    57304504800                       # Energy for precharge power-down per rank (pJ)
system.mem_ctrls0_1.selfRefreshEnergy    182478513720                       # Energy for self refresh per rank (pJ)
system.mem_ctrls0_1.totalEnergy          429166221630                       # Total energy per rank (pJ)
system.mem_ctrls0_1.averagePower           360.441386                       # Core power per rank (mW)
system.mem_ctrls0_1.totalIdleTime        1131846332831                       # Total Idle time Per DRAM Rank
system.mem_ctrls0_1.memoryStateTime::IDLE   3732671964                       # Time in different power states
system.mem_ctrls0_1.memoryStateTime::REF  18572246000                       # Time in different power states
system.mem_ctrls0_1.memoryStateTime::SREF 730535614633                       # Time in different power states
system.mem_ctrls0_1.memoryStateTime::PRE_PDN 149230316002                       # Time in different power states
system.mem_ctrls0_1.memoryStateTime::ACT  36275842739                       # Time in different power states
system.mem_ctrls0_1.memoryStateTime::ACT_PDN 252321848795                       # Time in different power states
system.mem_ctrls1.pwrStateResidencyTicks::UNDEFINED 191241978455133                       # Cumulative time (in ticks) in various power states
system.mem_ctrls1.bytes_read::cpu.inst            128                       # Number of bytes read from this memory
system.mem_ctrls1.bytes_read::cpu.data             64                       # Number of bytes read from this memory
system.mem_ctrls1.bytes_read::switch_cpus.inst        14144                       # Number of bytes read from this memory
system.mem_ctrls1.bytes_read::switch_cpus.data     20832640                       # Number of bytes read from this memory
system.mem_ctrls1.bytes_read::switch_cpus_1.inst          768                       # Number of bytes read from this memory
system.mem_ctrls1.bytes_read::switch_cpus_1.data      4662848                       # Number of bytes read from this memory
system.mem_ctrls1.bytes_read::total          25510592                       # Number of bytes read from this memory
system.mem_ctrls1.bytes_inst_read::cpu.inst          128                       # Number of instructions bytes read from this memory
system.mem_ctrls1.bytes_inst_read::switch_cpus.inst        14144                       # Number of instructions bytes read from this memory
system.mem_ctrls1.bytes_inst_read::switch_cpus_1.inst          768                       # Number of instructions bytes read from this memory
system.mem_ctrls1.bytes_inst_read::total        15040                       # Number of instructions bytes read from this memory
system.mem_ctrls1.bytes_written::writebacks     16592192                       # Number of bytes written to this memory
system.mem_ctrls1.bytes_written::total       16592192                       # Number of bytes written to this memory
system.mem_ctrls1.num_reads::cpu.inst               2                       # Number of read requests responded to by this memory
system.mem_ctrls1.num_reads::cpu.data               1                       # Number of read requests responded to by this memory
system.mem_ctrls1.num_reads::switch_cpus.inst          221                       # Number of read requests responded to by this memory
system.mem_ctrls1.num_reads::switch_cpus.data       325510                       # Number of read requests responded to by this memory
system.mem_ctrls1.num_reads::switch_cpus_1.inst           12                       # Number of read requests responded to by this memory
system.mem_ctrls1.num_reads::switch_cpus_1.data        72857                       # Number of read requests responded to by this memory
system.mem_ctrls1.num_reads::total             398603                       # Number of read requests responded to by this memory
system.mem_ctrls1.num_writes::writebacks       259253                       # Number of write requests responded to by this memory
system.mem_ctrls1.num_writes::total            259253                       # Number of write requests responded to by this memory
system.mem_ctrls1.bw_read::cpu.inst               108                       # Total read bandwidth from this memory (bytes/s)
system.mem_ctrls1.bw_read::cpu.data                54                       # Total read bandwidth from this memory (bytes/s)
system.mem_ctrls1.bw_read::switch_cpus.inst        11879                       # Total read bandwidth from this memory (bytes/s)
system.mem_ctrls1.bw_read::switch_cpus.data     17496591                       # Total read bandwidth from this memory (bytes/s)
system.mem_ctrls1.bw_read::switch_cpus_1.inst          645                       # Total read bandwidth from this memory (bytes/s)
system.mem_ctrls1.bw_read::switch_cpus_1.data      3916160                       # Total read bandwidth from this memory (bytes/s)
system.mem_ctrls1.bw_read::total             21425435                       # Total read bandwidth from this memory (bytes/s)
system.mem_ctrls1.bw_inst_read::cpu.inst          108                       # Instruction read bandwidth from this memory (bytes/s)
system.mem_ctrls1.bw_inst_read::switch_cpus.inst        11879                       # Instruction read bandwidth from this memory (bytes/s)
system.mem_ctrls1.bw_inst_read::switch_cpus_1.inst          645                       # Instruction read bandwidth from this memory (bytes/s)
system.mem_ctrls1.bw_inst_read::total           12632                       # Instruction read bandwidth from this memory (bytes/s)
system.mem_ctrls1.bw_write::writebacks       13935190                       # Write bandwidth from this memory (bytes/s)
system.mem_ctrls1.bw_write::total            13935190                       # Write bandwidth from this memory (bytes/s)
system.mem_ctrls1.bw_total::writebacks       13935190                       # Total bandwidth to/from this memory (bytes/s)
system.mem_ctrls1.bw_total::cpu.inst              108                       # Total bandwidth to/from this memory (bytes/s)
system.mem_ctrls1.bw_total::cpu.data               54                       # Total bandwidth to/from this memory (bytes/s)
system.mem_ctrls1.bw_total::switch_cpus.inst        11879                       # Total bandwidth to/from this memory (bytes/s)
system.mem_ctrls1.bw_total::switch_cpus.data     17496591                       # Total bandwidth to/from this memory (bytes/s)
system.mem_ctrls1.bw_total::switch_cpus_1.inst          645                       # Total bandwidth to/from this memory (bytes/s)
system.mem_ctrls1.bw_total::switch_cpus_1.data      3916160                       # Total bandwidth to/from this memory (bytes/s)
system.mem_ctrls1.bw_total::total            35360625                       # Total bandwidth to/from this memory (bytes/s)
system.mem_ctrls1.readReqs                     398603                       # Number of read requests accepted
system.mem_ctrls1.writeReqs                    259253                       # Number of write requests accepted
system.mem_ctrls1.readBursts                   398603                       # Number of DRAM read bursts, including those serviced by the write queue
system.mem_ctrls1.writeBursts                  259253                       # Number of DRAM write bursts, including those merged in the write queue
system.mem_ctrls1.bytesReadDRAM              25451200                       # Total number of bytes read from DRAM
system.mem_ctrls1.bytesReadWrQ                  59392                       # Total number of bytes read from write queue
system.mem_ctrls1.bytesWritten               16590400                       # Total number of bytes written to DRAM
system.mem_ctrls1.bytesReadSys               25510592                       # Total read bytes from the system interface side
system.mem_ctrls1.bytesWrittenSys            16592192                       # Total written bytes from the system interface side
system.mem_ctrls1.servicedByWrQ                   928                       # Number of DRAM read bursts serviced by the write queue
system.mem_ctrls1.mergedWrBursts                    0                       # Number of DRAM write bursts merged with an existing one
system.mem_ctrls1.neitherReadNorWriteReqs            0                       # Number of requests that are neither read nor write
system.mem_ctrls1.perBankRdBursts::0            26142                       # Per bank write bursts
system.mem_ctrls1.perBankRdBursts::1            25523                       # Per bank write bursts
system.mem_ctrls1.perBankRdBursts::2            26344                       # Per bank write bursts
system.mem_ctrls1.perBankRdBursts::3            25387                       # Per bank write bursts
system.mem_ctrls1.perBankRdBursts::4            23303                       # Per bank write bursts
system.mem_ctrls1.perBankRdBursts::5            24130                       # Per bank write bursts
system.mem_ctrls1.perBankRdBursts::6            24383                       # Per bank write bursts
system.mem_ctrls1.perBankRdBursts::7            25328                       # Per bank write bursts
system.mem_ctrls1.perBankRdBursts::8            25686                       # Per bank write bursts
system.mem_ctrls1.perBankRdBursts::9            24577                       # Per bank write bursts
system.mem_ctrls1.perBankRdBursts::10           25110                       # Per bank write bursts
system.mem_ctrls1.perBankRdBursts::11           24313                       # Per bank write bursts
system.mem_ctrls1.perBankRdBursts::12           23096                       # Per bank write bursts
system.mem_ctrls1.perBankRdBursts::13           24003                       # Per bank write bursts
system.mem_ctrls1.perBankRdBursts::14           24433                       # Per bank write bursts
system.mem_ctrls1.perBankRdBursts::15           25917                       # Per bank write bursts
system.mem_ctrls1.perBankWrBursts::0            17043                       # Per bank write bursts
system.mem_ctrls1.perBankWrBursts::1            16708                       # Per bank write bursts
system.mem_ctrls1.perBankWrBursts::2            17183                       # Per bank write bursts
system.mem_ctrls1.perBankWrBursts::3            16493                       # Per bank write bursts
system.mem_ctrls1.perBankWrBursts::4            14700                       # Per bank write bursts
system.mem_ctrls1.perBankWrBursts::5            15668                       # Per bank write bursts
system.mem_ctrls1.perBankWrBursts::6            16088                       # Per bank write bursts
system.mem_ctrls1.perBankWrBursts::7            16629                       # Per bank write bursts
system.mem_ctrls1.perBankWrBursts::8            16761                       # Per bank write bursts
system.mem_ctrls1.perBankWrBursts::9            16067                       # Per bank write bursts
system.mem_ctrls1.perBankWrBursts::10           16296                       # Per bank write bursts
system.mem_ctrls1.perBankWrBursts::11           15902                       # Per bank write bursts
system.mem_ctrls1.perBankWrBursts::12           15196                       # Per bank write bursts
system.mem_ctrls1.perBankWrBursts::13           15455                       # Per bank write bursts
system.mem_ctrls1.perBankWrBursts::14           15863                       # Per bank write bursts
system.mem_ctrls1.perBankWrBursts::15           17173                       # Per bank write bursts
system.mem_ctrls1.numRdRetry                        0                       # Number of times read queue was full causing retry
system.mem_ctrls1.numWrRetry                        0                       # Number of times write queue was full causing retry
system.mem_ctrls1.totGap                 1190635031142                       # Total gap between requests
system.mem_ctrls1.readPktSize::0                    0                       # Read request sizes (log2)
system.mem_ctrls1.readPktSize::1                    0                       # Read request sizes (log2)
system.mem_ctrls1.readPktSize::2                    0                       # Read request sizes (log2)
system.mem_ctrls1.readPktSize::3                    0                       # Read request sizes (log2)
system.mem_ctrls1.readPktSize::4                    0                       # Read request sizes (log2)
system.mem_ctrls1.readPktSize::5                    0                       # Read request sizes (log2)
system.mem_ctrls1.readPktSize::6               398603                       # Read request sizes (log2)
system.mem_ctrls1.writePktSize::0                   0                       # Write request sizes (log2)
system.mem_ctrls1.writePktSize::1                   0                       # Write request sizes (log2)
system.mem_ctrls1.writePktSize::2                   0                       # Write request sizes (log2)
system.mem_ctrls1.writePktSize::3                   0                       # Write request sizes (log2)
system.mem_ctrls1.writePktSize::4                   0                       # Write request sizes (log2)
system.mem_ctrls1.writePktSize::5                   0                       # Write request sizes (log2)
system.mem_ctrls1.writePktSize::6              259253                       # Write request sizes (log2)
system.mem_ctrls1.rdQLenPdf::0                 390040                       # What read queue length does an incoming req see
system.mem_ctrls1.rdQLenPdf::1                   7382                       # What read queue length does an incoming req see
system.mem_ctrls1.rdQLenPdf::2                    218                       # What read queue length does an incoming req see
system.mem_ctrls1.rdQLenPdf::3                     35                       # What read queue length does an incoming req see
system.mem_ctrls1.rdQLenPdf::4                      0                       # What read queue length does an incoming req see
system.mem_ctrls1.rdQLenPdf::5                      0                       # What read queue length does an incoming req see
system.mem_ctrls1.rdQLenPdf::6                      0                       # What read queue length does an incoming req see
system.mem_ctrls1.rdQLenPdf::7                      0                       # What read queue length does an incoming req see
system.mem_ctrls1.rdQLenPdf::8                      0                       # What read queue length does an incoming req see
system.mem_ctrls1.rdQLenPdf::9                      0                       # What read queue length does an incoming req see
system.mem_ctrls1.rdQLenPdf::10                     0                       # What read queue length does an incoming req see
system.mem_ctrls1.rdQLenPdf::11                     0                       # What read queue length does an incoming req see
system.mem_ctrls1.rdQLenPdf::12                     0                       # What read queue length does an incoming req see
system.mem_ctrls1.rdQLenPdf::13                     0                       # What read queue length does an incoming req see
system.mem_ctrls1.rdQLenPdf::14                     0                       # What read queue length does an incoming req see
system.mem_ctrls1.rdQLenPdf::15                     0                       # What read queue length does an incoming req see
system.mem_ctrls1.rdQLenPdf::16                     0                       # What read queue length does an incoming req see
system.mem_ctrls1.rdQLenPdf::17                     0                       # What read queue length does an incoming req see
system.mem_ctrls1.rdQLenPdf::18                     0                       # What read queue length does an incoming req see
system.mem_ctrls1.rdQLenPdf::19                     0                       # What read queue length does an incoming req see
system.mem_ctrls1.rdQLenPdf::20                     0                       # What read queue length does an incoming req see
system.mem_ctrls1.rdQLenPdf::21                     0                       # What read queue length does an incoming req see
system.mem_ctrls1.rdQLenPdf::22                     0                       # What read queue length does an incoming req see
system.mem_ctrls1.rdQLenPdf::23                     0                       # What read queue length does an incoming req see
system.mem_ctrls1.rdQLenPdf::24                     0                       # What read queue length does an incoming req see
system.mem_ctrls1.rdQLenPdf::25                     0                       # What read queue length does an incoming req see
system.mem_ctrls1.rdQLenPdf::26                     0                       # What read queue length does an incoming req see
system.mem_ctrls1.rdQLenPdf::27                     0                       # What read queue length does an incoming req see
system.mem_ctrls1.rdQLenPdf::28                     0                       # What read queue length does an incoming req see
system.mem_ctrls1.rdQLenPdf::29                     0                       # What read queue length does an incoming req see
system.mem_ctrls1.rdQLenPdf::30                     0                       # What read queue length does an incoming req see
system.mem_ctrls1.rdQLenPdf::31                     0                       # What read queue length does an incoming req see
system.mem_ctrls1.wrQLenPdf::0                      2                       # What write queue length does an incoming req see
system.mem_ctrls1.wrQLenPdf::1                      2                       # What write queue length does an incoming req see
system.mem_ctrls1.wrQLenPdf::2                      2                       # What write queue length does an incoming req see
system.mem_ctrls1.wrQLenPdf::3                      2                       # What write queue length does an incoming req see
system.mem_ctrls1.wrQLenPdf::4                      2                       # What write queue length does an incoming req see
system.mem_ctrls1.wrQLenPdf::5                      2                       # What write queue length does an incoming req see
system.mem_ctrls1.wrQLenPdf::6                      2                       # What write queue length does an incoming req see
system.mem_ctrls1.wrQLenPdf::7                      2                       # What write queue length does an incoming req see
system.mem_ctrls1.wrQLenPdf::8                      2                       # What write queue length does an incoming req see
system.mem_ctrls1.wrQLenPdf::9                      2                       # What write queue length does an incoming req see
system.mem_ctrls1.wrQLenPdf::10                     2                       # What write queue length does an incoming req see
system.mem_ctrls1.wrQLenPdf::11                     2                       # What write queue length does an incoming req see
system.mem_ctrls1.wrQLenPdf::12                     2                       # What write queue length does an incoming req see
system.mem_ctrls1.wrQLenPdf::13                     2                       # What write queue length does an incoming req see
system.mem_ctrls1.wrQLenPdf::14                     2                       # What write queue length does an incoming req see
system.mem_ctrls1.wrQLenPdf::15                 10917                       # What write queue length does an incoming req see
system.mem_ctrls1.wrQLenPdf::16                 11184                       # What write queue length does an incoming req see
system.mem_ctrls1.wrQLenPdf::17                 14262                       # What write queue length does an incoming req see
system.mem_ctrls1.wrQLenPdf::18                 14751                       # What write queue length does an incoming req see
system.mem_ctrls1.wrQLenPdf::19                 14846                       # What write queue length does an incoming req see
system.mem_ctrls1.wrQLenPdf::20                 14878                       # What write queue length does an incoming req see
system.mem_ctrls1.wrQLenPdf::21                 14873                       # What write queue length does an incoming req see
system.mem_ctrls1.wrQLenPdf::22                 14873                       # What write queue length does an incoming req see
system.mem_ctrls1.wrQLenPdf::23                 14896                       # What write queue length does an incoming req see
system.mem_ctrls1.wrQLenPdf::24                 14891                       # What write queue length does an incoming req see
system.mem_ctrls1.wrQLenPdf::25                 14874                       # What write queue length does an incoming req see
system.mem_ctrls1.wrQLenPdf::26                 14877                       # What write queue length does an incoming req see
system.mem_ctrls1.wrQLenPdf::27                 14878                       # What write queue length does an incoming req see
system.mem_ctrls1.wrQLenPdf::28                 14892                       # What write queue length does an incoming req see
system.mem_ctrls1.wrQLenPdf::29                 14900                       # What write queue length does an incoming req see
system.mem_ctrls1.wrQLenPdf::30                 14857                       # What write queue length does an incoming req see
system.mem_ctrls1.wrQLenPdf::31                 14752                       # What write queue length does an incoming req see
system.mem_ctrls1.wrQLenPdf::32                 14738                       # What write queue length does an incoming req see
system.mem_ctrls1.wrQLenPdf::33                    71                       # What write queue length does an incoming req see
system.mem_ctrls1.wrQLenPdf::34                    12                       # What write queue length does an incoming req see
system.mem_ctrls1.wrQLenPdf::35                     1                       # What write queue length does an incoming req see
system.mem_ctrls1.wrQLenPdf::36                     0                       # What write queue length does an incoming req see
system.mem_ctrls1.wrQLenPdf::37                     0                       # What write queue length does an incoming req see
system.mem_ctrls1.wrQLenPdf::38                     0                       # What write queue length does an incoming req see
system.mem_ctrls1.wrQLenPdf::39                     0                       # What write queue length does an incoming req see
system.mem_ctrls1.wrQLenPdf::40                     0                       # What write queue length does an incoming req see
system.mem_ctrls1.wrQLenPdf::41                     0                       # What write queue length does an incoming req see
system.mem_ctrls1.wrQLenPdf::42                     0                       # What write queue length does an incoming req see
system.mem_ctrls1.wrQLenPdf::43                     0                       # What write queue length does an incoming req see
system.mem_ctrls1.wrQLenPdf::44                     0                       # What write queue length does an incoming req see
system.mem_ctrls1.wrQLenPdf::45                     0                       # What write queue length does an incoming req see
system.mem_ctrls1.wrQLenPdf::46                     0                       # What write queue length does an incoming req see
system.mem_ctrls1.wrQLenPdf::47                     0                       # What write queue length does an incoming req see
system.mem_ctrls1.wrQLenPdf::48                     0                       # What write queue length does an incoming req see
system.mem_ctrls1.wrQLenPdf::49                     0                       # What write queue length does an incoming req see
system.mem_ctrls1.wrQLenPdf::50                     0                       # What write queue length does an incoming req see
system.mem_ctrls1.wrQLenPdf::51                     0                       # What write queue length does an incoming req see
system.mem_ctrls1.wrQLenPdf::52                     0                       # What write queue length does an incoming req see
system.mem_ctrls1.wrQLenPdf::53                     0                       # What write queue length does an incoming req see
system.mem_ctrls1.wrQLenPdf::54                     0                       # What write queue length does an incoming req see
system.mem_ctrls1.wrQLenPdf::55                     0                       # What write queue length does an incoming req see
system.mem_ctrls1.wrQLenPdf::56                     0                       # What write queue length does an incoming req see
system.mem_ctrls1.wrQLenPdf::57                     0                       # What write queue length does an incoming req see
system.mem_ctrls1.wrQLenPdf::58                     0                       # What write queue length does an incoming req see
system.mem_ctrls1.wrQLenPdf::59                     0                       # What write queue length does an incoming req see
system.mem_ctrls1.wrQLenPdf::60                     0                       # What write queue length does an incoming req see
system.mem_ctrls1.wrQLenPdf::61                     0                       # What write queue length does an incoming req see
system.mem_ctrls1.wrQLenPdf::62                     0                       # What write queue length does an incoming req see
system.mem_ctrls1.wrQLenPdf::63                     0                       # What write queue length does an incoming req see
system.mem_ctrls1.bytesPerActivate::samples       407921                       # Bytes accessed per row activation
system.mem_ctrls1.bytesPerActivate::mean   103.063093                       # Bytes accessed per row activation
system.mem_ctrls1.bytesPerActivate::gmean    83.198112                       # Bytes accessed per row activation
system.mem_ctrls1.bytesPerActivate::stdev   110.549381                       # Bytes accessed per row activation
system.mem_ctrls1.bytesPerActivate::0-127       308879     75.72%     75.72% # Bytes accessed per row activation
system.mem_ctrls1.bytesPerActivate::128-255        70068     17.18%     92.90% # Bytes accessed per row activation
system.mem_ctrls1.bytesPerActivate::256-383        15139      3.71%     96.61% # Bytes accessed per row activation
system.mem_ctrls1.bytesPerActivate::384-511         7053      1.73%     98.34% # Bytes accessed per row activation
system.mem_ctrls1.bytesPerActivate::512-639         2362      0.58%     98.92% # Bytes accessed per row activation
system.mem_ctrls1.bytesPerActivate::640-767         1097      0.27%     99.19% # Bytes accessed per row activation
system.mem_ctrls1.bytesPerActivate::768-895          796      0.20%     99.38% # Bytes accessed per row activation
system.mem_ctrls1.bytesPerActivate::896-1023          607      0.15%     99.53% # Bytes accessed per row activation
system.mem_ctrls1.bytesPerActivate::1024-1151         1920      0.47%    100.00% # Bytes accessed per row activation
system.mem_ctrls1.bytesPerActivate::total       407921                       # Bytes accessed per row activation
system.mem_ctrls1.rdPerTurnAround::samples        14735                       # Reads before turning the bus around for writes
system.mem_ctrls1.rdPerTurnAround::mean     26.986155                       # Reads before turning the bus around for writes
system.mem_ctrls1.rdPerTurnAround::stdev   237.170620                       # Reads before turning the bus around for writes
system.mem_ctrls1.rdPerTurnAround::0-1023        14734     99.99%     99.99% # Reads before turning the bus around for writes
system.mem_ctrls1.rdPerTurnAround::28672-29695            1      0.01%    100.00% # Reads before turning the bus around for writes
system.mem_ctrls1.rdPerTurnAround::total        14735                       # Reads before turning the bus around for writes
system.mem_ctrls1.wrPerTurnAround::samples        14735                       # Writes before turning the bus around for reads
system.mem_ctrls1.wrPerTurnAround::mean     17.592467                       # Writes before turning the bus around for reads
system.mem_ctrls1.wrPerTurnAround::gmean    17.564579                       # Writes before turning the bus around for reads
system.mem_ctrls1.wrPerTurnAround::stdev     0.980666                       # Writes before turning the bus around for reads
system.mem_ctrls1.wrPerTurnAround::16            3619     24.56%     24.56% # Writes before turning the bus around for reads
system.mem_ctrls1.wrPerTurnAround::17             164      1.11%     25.67% # Writes before turning the bus around for reads
system.mem_ctrls1.wrPerTurnAround::18            9734     66.06%     91.73% # Writes before turning the bus around for reads
system.mem_ctrls1.wrPerTurnAround::19            1078      7.32%     99.05% # Writes before turning the bus around for reads
system.mem_ctrls1.wrPerTurnAround::20             118      0.80%     99.85% # Writes before turning the bus around for reads
system.mem_ctrls1.wrPerTurnAround::21              15      0.10%     99.95% # Writes before turning the bus around for reads
system.mem_ctrls1.wrPerTurnAround::22               6      0.04%     99.99% # Writes before turning the bus around for reads
system.mem_ctrls1.wrPerTurnAround::32               1      0.01%    100.00% # Writes before turning the bus around for reads
system.mem_ctrls1.wrPerTurnAround::total        14735                       # Writes before turning the bus around for reads
system.mem_ctrls1.totQLat                 18976680767                       # Total ticks spent queuing
system.mem_ctrls1.totMemAccLat            26433087017                       # Total ticks spent from burst creation until serviced by the DRAM
system.mem_ctrls1.totBusLat                1988375000                       # Total ticks spent in databus transfers
system.mem_ctrls1.avgQLat                    47719.07                       # Average queueing delay per DRAM burst
system.mem_ctrls1.avgBusLat                   5000.00                       # Average bus latency per DRAM burst
system.mem_ctrls1.avgMemAccLat               66469.07                       # Average memory access latency per DRAM burst
system.mem_ctrls1.avgRdBW                       21.38                       # Average DRAM read bandwidth in MiByte/s
system.mem_ctrls1.avgWrBW                       13.93                       # Average achieved write bandwidth in MiByte/s
system.mem_ctrls1.avgRdBWSys                    21.43                       # Average system read bandwidth in MiByte/s
system.mem_ctrls1.avgWrBWSys                    13.94                       # Average system write bandwidth in MiByte/s
system.mem_ctrls1.peakBW                     12800.00                       # Theoretical peak bandwidth in MiByte/s
system.mem_ctrls1.busUtil                        0.28                       # Data bus utilization in percentage
system.mem_ctrls1.busUtilRead                    0.17                       # Data bus utilization in percentage for reads
system.mem_ctrls1.busUtilWrite                   0.11                       # Data bus utilization in percentage for writes
system.mem_ctrls1.avgRdQLen                      1.00                       # Average read queue length when enqueuing
system.mem_ctrls1.avgWrQLen                     23.16                       # Average write queue length when enqueuing
system.mem_ctrls1.readRowHits                  194016                       # Number of row buffer hits during reads
system.mem_ctrls1.writeRowHits                  54963                       # Number of row buffer hits during writes
system.mem_ctrls1.readRowHitRate                48.79                       # Row buffer hit rate for reads
system.mem_ctrls1.writeRowHitRate               21.20                       # Row buffer hit rate for writes
system.mem_ctrls1.avgGap                   1809871.81                       # Average gap between requests
system.mem_ctrls1.pageHitRate                   37.90                       # Row buffer hit rate, read and write combined
system.mem_ctrls1_0.actEnergy              1465549260                       # Energy for activate commands per rank (pJ)
system.mem_ctrls1_0.preEnergy               778957905                       # Energy for precharge commands per rank (pJ)
system.mem_ctrls1_0.readEnergy             1431855600                       # Energy for read commands per rank (pJ)
system.mem_ctrls1_0.writeEnergy             681272640                       # Energy for write commands per rank (pJ)
system.mem_ctrls1_0.refreshEnergy        43078273680.000008                       # Energy for refresh commands per rank (pJ)
system.mem_ctrls1_0.actBackEnergy         24118961190                       # Energy for active background per rank (pJ)
system.mem_ctrls1_0.preBackEnergy          2086573440                       # Energy for precharge background per rank (pJ)
system.mem_ctrls1_0.actPowerDownEnergy   112892208420                       # Energy for active power-down per rank (pJ)
system.mem_ctrls1_0.prePowerDownEnergy    56185368960                       # Energy for precharge power-down per rank (pJ)
system.mem_ctrls1_0.selfRefreshEnergy    184354694985                       # Energy for self refresh per rank (pJ)
system.mem_ctrls1_0.totalEnergy          427088133510                       # Total energy per rank (pJ)
system.mem_ctrls1_0.averagePower           358.696073                       # Core power per rank (mW)
system.mem_ctrls1_0.totalIdleTime        1132227052641                       # Total Idle time Per DRAM Rank
system.mem_ctrls1_0.memoryStateTime::IDLE   3694435235                       # Time in different power states
system.mem_ctrls1_0.memoryStateTime::REF  18301514000                       # Time in different power states
system.mem_ctrls1_0.memoryStateTime::SREF 738423593383                       # Time in different power states
system.mem_ctrls1_0.memoryStateTime::PRE_PDN 146316394011                       # Time in different power states
system.mem_ctrls1_0.memoryStateTime::ACT  36360842329                       # Time in different power states
system.mem_ctrls1_0.memoryStateTime::ACT_PDN 247571761175                       # Time in different power states
system.mem_ctrls1_1.actEnergy              1447006680                       # Energy for activate commands per rank (pJ)
system.mem_ctrls1_1.preEnergy               769102290                       # Energy for precharge commands per rank (pJ)
system.mem_ctrls1_1.readEnergy             1407543900                       # Energy for read commands per rank (pJ)
system.mem_ctrls1_1.writeEnergy             671881860                       # Energy for write commands per rank (pJ)
system.mem_ctrls1_1.refreshEnergy        43740240960.000008                       # Energy for refresh commands per rank (pJ)
system.mem_ctrls1_1.actBackEnergy         24211574220                       # Energy for active background per rank (pJ)
system.mem_ctrls1_1.preBackEnergy          2112957600                       # Energy for precharge background per rank (pJ)
system.mem_ctrls1_1.actPowerDownEnergy   115077957780                       # Energy for active power-down per rank (pJ)
system.mem_ctrls1_1.prePowerDownEnergy    57245535360                       # Energy for precharge power-down per rank (pJ)
system.mem_ctrls1_1.selfRefreshEnergy    182519919225                       # Energy for self refresh per rank (pJ)
system.mem_ctrls1_1.totalEnergy          429218778495                       # Total energy per rank (pJ)
system.mem_ctrls1_1.averagePower           360.485526                       # Core power per rank (mW)
system.mem_ctrls1_1.totalIdleTime        1131797211882                       # Total Idle time Per DRAM Rank
system.mem_ctrls1_1.memoryStateTime::IDLE   3732512420                       # Time in different power states
system.mem_ctrls1_1.memoryStateTime::REF  18582044000                       # Time in different power states
system.mem_ctrls1_1.memoryStateTime::SREF 730596071383                       # Time in different power states
system.mem_ctrls1_1.memoryStateTime::PRE_PDN 149075747913                       # Time in different power states
system.mem_ctrls1_1.memoryStateTime::ACT  36319236072                       # Time in different power states
system.mem_ctrls1_1.memoryStateTime::ACT_PDN 252362928345                       # Time in different power states
system.pwrStateResidencyTicks::UNDEFINED 191241978455133                       # Cumulative time (in ticks) in various power states
system.cpu.branchPred.lookups                       4                       # Number of BP lookups
system.cpu.branchPred.condPredicted                 2                       # Number of conditional branches predicted
system.cpu.branchPred.condIncorrect                 2                       # Number of conditional branches incorrect
system.cpu.branchPred.BTBLookups                    2                       # Number of BTB lookups
system.cpu.branchPred.BTBHits                       0                       # Number of BTB hits
system.cpu.branchPred.BTBCorrect                    0                       # Number of correct BTB predictions (this stat may not work properly.
system.cpu.branchPred.BTBHitPct              0.000000                       # BTB Hit Percentage
system.cpu.branchPred.usedRAS                       0                       # Number of times the RAS was used to get a target.
system.cpu.branchPred.RASInCorrect                  0                       # Number of incorrect RAS predictions.
system.cpu.branchPred.indirectLookups               0                       # Number of indirect predictor lookups.
system.cpu.branchPred.indirectHits                  0                       # Number of indirect target hits.
system.cpu.branchPred.indirectMisses                0                       # Number of indirect misses.
system.cpu.branchPredindirectMispredicted            0                       # Number of mispredicted indirect branches.
system.cpu_voltage_domain.voltage                   1                       # Voltage in Volts
system.cpu_clk_domain.clock                       333                       # Clock period in ticks
system.cpu.dtb.fetch_hits                           0                       # ITB hits
system.cpu.dtb.fetch_misses                         0                       # ITB misses
system.cpu.dtb.fetch_acv                            0                       # ITB acv
system.cpu.dtb.fetch_accesses                       0                       # ITB accesses
system.cpu.dtb.read_hits                            6                       # DTB read hits
system.cpu.dtb.read_misses                          0                       # DTB read misses
system.cpu.dtb.read_acv                             0                       # DTB read access violations
system.cpu.dtb.read_accesses                        6                       # DTB read accesses
system.cpu.dtb.write_hits                           1                       # DTB write hits
system.cpu.dtb.write_misses                         0                       # DTB write misses
system.cpu.dtb.write_acv                            0                       # DTB write access violations
system.cpu.dtb.write_accesses                       1                       # DTB write accesses
system.cpu.dtb.data_hits                            7                       # DTB hits
system.cpu.dtb.data_misses                          0                       # DTB misses
system.cpu.dtb.data_acv                             0                       # DTB access violations
system.cpu.dtb.data_accesses                        7                       # DTB accesses
system.cpu.itb.fetch_hits                           7                       # ITB hits
system.cpu.itb.fetch_misses                         0                       # ITB misses
system.cpu.itb.fetch_acv                            0                       # ITB acv
system.cpu.itb.fetch_accesses                       7                       # ITB accesses
system.cpu.itb.read_hits                            0                       # DTB read hits
system.cpu.itb.read_misses                          0                       # DTB read misses
system.cpu.itb.read_acv                             0                       # DTB read access violations
system.cpu.itb.read_accesses                        0                       # DTB read accesses
system.cpu.itb.write_hits                           0                       # DTB write hits
system.cpu.itb.write_misses                         0                       # DTB write misses
system.cpu.itb.write_acv                            0                       # DTB write access violations
system.cpu.itb.write_accesses                       0                       # DTB write accesses
system.cpu.itb.data_hits                            0                       # DTB hits
system.cpu.itb.data_misses                          0                       # DTB misses
system.cpu.itb.data_acv                             0                       # DTB access violations
system.cpu.itb.data_accesses                        0                       # DTB accesses
system.cpu.workload.num_syscalls                    0                       # Number of system calls
system.cpu.pwrStateResidencyTicks::ON    1190668540133                       # Cumulative time (in ticks) in various power states
system.cpu.numCycles                              851                       # number of cpu cycles simulated
system.cpu.numWorkItemsStarted                      0                       # number of work items this cpu started
system.cpu.numWorkItemsCompleted                    0                       # number of work items this cpu completed
system.cpu.fetch.icacheStallCycles                 50                       # Number of cycles fetch is stalled on an Icache miss
system.cpu.fetch.Insts                             19                       # Number of instructions fetch has processed
system.cpu.fetch.Branches                           4                       # Number of branches that fetch encountered
system.cpu.fetch.Cycles                             4                       # Number of cycles fetch has run and was not squashing or blocked
system.cpu.fetch.SquashCycles                       7                       # Number of cycles fetch has spent squashing
system.cpu.fetch.PendingDrainCycles                 6                       # Number of cycles fetch has spent waiting on pipes to drain
system.cpu.fetch.CacheLines                         7                       # Number of cache lines fetched
system.cpu.fetch.IcacheSquashes                     4                       # Number of outstanding Icache misses that were squashed
system.cpu.fetch.rateDist::samples                 63                       # Number of instructions fetched each cycle (Total)
system.cpu.fetch.rateDist::mean              0.301587                       # Number of instructions fetched each cycle (Total)
system.cpu.fetch.rateDist::stdev             1.432738                       # Number of instructions fetched each cycle (Total)
system.cpu.fetch.rateDist::underflows               0      0.00%      0.00% # Number of instructions fetched each cycle (Total)
system.cpu.fetch.rateDist::0                       59     93.65%     93.65% # Number of instructions fetched each cycle (Total)
system.cpu.fetch.rateDist::1                        1      1.59%     95.24% # Number of instructions fetched each cycle (Total)
system.cpu.fetch.rateDist::2                        1      1.59%     96.83% # Number of instructions fetched each cycle (Total)
system.cpu.fetch.rateDist::3                        0      0.00%     96.83% # Number of instructions fetched each cycle (Total)
system.cpu.fetch.rateDist::4                        0      0.00%     96.83% # Number of instructions fetched each cycle (Total)
system.cpu.fetch.rateDist::5                        0      0.00%     96.83% # Number of instructions fetched each cycle (Total)
[...]
system.switch_cpus_1.iq.int_inst_queue_writes    557591329                       # Number of integer instruction queue writes
system.switch_cpus_1.iq.int_inst_queue_wakeup_accesses    315031018                       # Number of integer instruction queue wakeup accesses
system.switch_cpus_1.iq.fp_inst_queue_reads          222                       # Number of floating instruction queue reads
system.switch_cpus_1.iq.fp_inst_queue_writes          177                       # Number of floating instruction queue writes
system.switch_cpus_1.iq.fp_inst_queue_wakeup_accesses          101                       # Number of floating instruction queue wakeup accesses
system.switch_cpus_1.iq.int_alu_accesses    339806992                       # Number of integer alu accesses
system.switch_cpus_1.iq.fp_alu_accesses           111                       # Number of floating point alu accesses
system.switch_cpus_1.iew.lsq.thread0.forwLoads      3692610                       # Number of loads that had data forwarded from stores
system.switch_cpus_1.iew.lsq.thread0.invAddrLoads            0                       # Number of loads ignored due to an invalid address
system.switch_cpus_1.iew.lsq.thread0.squashedLoads     42757285                       # Number of loads squashed
system.switch_cpus_1.iew.lsq.thread0.ignoredResponses        24534                       # Number of memory responses ignored because the instruction is squashed
system.switch_cpus_1.iew.lsq.thread0.memOrderViolation        11253                       # Number of memory ordering violations
system.switch_cpus_1.iew.lsq.thread0.squashedStores     13249466                       # Number of stores squashed
system.switch_cpus_1.iew.lsq.thread0.invAddrSwpfs            0                       # Number of software prefetches ignored due to an invalid address
system.switch_cpus_1.iew.lsq.thread0.blockedLoads            0                       # Number of blocked loads due to partial load-store forwarding
system.switch_cpus_1.iew.lsq.thread0.rescheduledLoads            0                       # Number of loads that were rescheduled
system.switch_cpus_1.iew.lsq.thread0.cacheBlocked      6250760                       # Number of times an access to memory failed due to the cache being blocked
system.switch_cpus_1.iew.iewIdleCycles              0                       # Number of cycles IEW is idle
system.switch_cpus_1.iew.iewSquashCycles      3265521                       # Number of cycles IEW is squashing
system.switch_cpus_1.iew.iewBlockCycles      35983166                       # Number of cycles IEW is blocking
system.switch_cpus_1.iew.iewUnblockCycles      8672364                       # Number of cycles IEW is unblocking
system.switch_cpus_1.iew.iewDispatchedInsts    379484450                       # Number of instructions dispatched to IQ
system.switch_cpus_1.iew.iewDispSquashedInsts       954363                       # Number of squashed instructions skipped by dispatch
system.switch_cpus_1.iew.iewDispLoadInsts     92190033                       # Number of dispatched load instructions
system.switch_cpus_1.iew.iewDispStoreInsts     27314954                       # Number of dispatched store instructions
system.switch_cpus_1.iew.iewDispNonSpecInsts            0                       # Number of dispatched non-speculative instructions
system.switch_cpus_1.iew.iewIQFullEvents       187660                       # Number of times the IQ has become full, causing a stall
system.switch_cpus_1.iew.iewLSQFullEvents      8407370                       # Number of times the LSQ has become full, causing a stall
system.switch_cpus_1.iew.memOrderViolationEvents        11253                       # Number of memory order violations
system.switch_cpus_1.iew.predictedTakenIncorrect      1671498                       # Number of branches that were predicted taken incorrectly
system.switch_cpus_1.iew.predictedNotTakenIncorrect      1793024                       # Number of branches that were predicted not taken incorrectly
system.switch_cpus_1.iew.branchMispredicts      3464522                       # Number of branch mispredicts detected at execute
system.switch_cpus_1.iew.iewExecutedInsts    329127418                       # Number of executed instructions
system.switch_cpus_1.iew.iewExecLoadInsts     86562199                       # Number of load instructions executed
system.switch_cpus_1.iew.iewExecSquashedInsts      6254165                       # Number of squashed instructions skipped in execute
system.switch_cpus_1.iew.exec_swp                   0                       # number of swp insts executed
system.switch_cpus_1.iew.exec_nop              694058                       # number of nop insts executed
system.switch_cpus_1.iew.exec_refs          107277610                       # number of memory reference insts executed
system.switch_cpus_1.iew.exec_branches       38303000                       # Number of branches executed
system.switch_cpus_1.iew.exec_stores         20715411                       # Number of stores executed
system.switch_cpus_1.iew.exec_rate           1.711727                       # Inst execution rate
system.switch_cpus_1.iew.wb_sent            318600737                       # cumulative count of insts sent to commit
system.switch_cpus_1.iew.wb_count           315031119                       # cumulative count of insts written-back
system.switch_cpus_1.iew.wb_producers       205091124                       # num instructions producing a value
system.switch_cpus_1.iew.wb_consumers       269564780                       # num instructions consuming a value
system.switch_cpus_1.iew.wb_rate             1.638415                       # insts written-back per cycle
system.switch_cpus_1.iew.wb_fanout           0.760823                       # average fanout of values written-back
system.switch_cpus_1.commit.commitSquashedInsts    169588619                       # The number of squashed insts skipped by commit
system.switch_cpus_1.commit.branchMispredicts      2821626                       # The number of times a branch was mispredicted
system.switch_cpus_1.commit.committed_per_cycle::samples    168766822                       # Number of insts commited each cycle
system.switch_cpus_1.commit.committed_per_cycle::mean     1.188260                       # Number of insts commited each cycle
system.switch_cpus_1.commit.committed_per_cycle::stdev     2.365867                       # Number of insts commited each cycle
system.switch_cpus_1.commit.committed_per_cycle::underflows            0      0.00%      0.00% # Number of insts commited each cycle
system.switch_cpus_1.commit.committed_per_cycle::0    114706308     67.97%     67.97% # Number of insts commited each cycle
system.switch_cpus_1.commit.committed_per_cycle::1     17233007     10.21%     78.18% # Number of insts commited each cycle
system.switch_cpus_1.commit.committed_per_cycle::2     11107814      6.58%     84.76% # Number of insts commited each cycle
system.switch_cpus_1.commit.committed_per_cycle::3      5016034      2.97%     87.73% # Number of insts commited each cycle
system.switch_cpus_1.commit.committed_per_cycle::4      2547396      1.51%     89.24% # Number of insts commited each cycle
system.switch_cpus_1.commit.committed_per_cycle::5      1932476      1.15%     90.39% # Number of insts commited each cycle
system.switch_cpus_1.commit.committed_per_cycle::6      1367696      0.81%     91.20% # Number of insts commited each cycle
system.switch_cpus_1.commit.committed_per_cycle::7       864673      0.51%     91.71% # Number of insts commited each cycle
system.switch_cpus_1.commit.committed_per_cycle::8     13991418      8.29%    100.00% # Number of insts commited each cycle
system.switch_cpus_1.commit.committed_per_cycle::overflows            0      0.00%    100.00% # Number of insts commited each cycle
system.switch_cpus_1.commit.committed_per_cycle::min_value            0                       # Number of insts commited each cycle
system.switch_cpus_1.commit.committed_per_cycle::max_value            8                       # Number of insts commited each cycle
system.switch_cpus_1.commit.committed_per_cycle::total    168766822                       # Number of insts commited each cycle
system.switch_cpus_1.commit.committedInsts    200538932                       # Number of instructions committed
system.switch_cpus_1.commit.committedOps    200538932                       # Number of ops (including micro ops) committed
system.switch_cpus_1.commit.swp_count               0                       # Number of s/w prefetches committed
system.switch_cpus_1.commit.refs             63498195                       # Number of memory references committed
system.switch_cpus_1.commit.loads            49432720                       # Number of loads committed
system.switch_cpus_1.commit.membars                 0                       # Number of memory barriers committed
system.switch_cpus_1.commit.branches         24329166                       # Number of branches committed
system.switch_cpus_1.commit.fp_insts               91                       # Number of committed floating point instructions.
system.switch_cpus_1.commit.int_insts       197997126                       # Number of committed integer instructions.
system.switch_cpus_1.commit.function_calls       749984                       # Number of function calls committed.
system.switch_cpus_1.commit.op_class_0::No_OpClass       538941      0.27%      0.27% # Class of committed instruction
system.switch_cpus_1.commit.op_class_0::IntAlu    136501742     68.07%     68.34% # Class of committed instruction
system.switch_cpus_1.commit.op_class_0::IntMult            0      0.00%     68.34% # Class of committed instruction
system.switch_cpus_1.commit.op_class_0::IntDiv            0      0.00%     68.34% # Class of committed instruction
system.switch_cpus_1.commit.op_class_0::FloatAdd           30      0.00%     68.34% # Class of committed instruction
system.switch_cpus_1.commit.op_class_0::FloatCmp            0      0.00%     68.34% # Class of committed instruction
system.switch_cpus_1.commit.op_class_0::FloatCvt           18      0.00%     68.34% # Class of committed instruction
system.switch_cpus_1.commit.op_class_0::FloatMult            0      0.00%     68.34% # Class of committed instruction
system.switch_cpus_1.commit.op_class_0::FloatMultAcc            0      0.00%     68.34% # Class of committed instruction
system.switch_cpus_1.commit.op_class_0::FloatDiv            6      0.00%     68.34% # Class of committed instruction
system.switch_cpus_1.commit.op_class_0::FloatMisc            0      0.00%     68.34% # Class of committed instruction
system.switch_cpus_1.commit.op_class_0::FloatSqrt            0      0.00%     68.34% # Class of committed instruction
system.switch_cpus_1.commit.op_class_0::SimdAdd            0      0.00%     68.34% # Class of committed instruction
system.switch_cpus_1.commit.op_class_0::SimdAddAcc            0      0.00%     68.34% # Class of committed instruction
system.switch_cpus_1.commit.op_class_0::SimdAlu            0      0.00%     68.34% # Class of committed instruction
system.switch_cpus_1.commit.op_class_0::SimdCmp            0      0.00%     68.34% # Class of committed instruction
system.switch_cpus_1.commit.op_class_0::SimdCvt            0      0.00%     68.34% # Class of committed instruction
system.switch_cpus_1.commit.op_class_0::SimdMisc            0      0.00%     68.34% # Class of committed instruction
system.switch_cpus_1.commit.op_class_0::SimdMult            0      0.00%     68.34% # Class of committed instruction
system.switch_cpus_1.commit.op_class_0::SimdMultAcc            0      0.00%     68.34% # Class of committed instruction
system.switch_cpus_1.commit.op_class_0::SimdShift            0      0.00%     68.34% # Class of committed instruction
system.switch_cpus_1.commit.op_class_0::SimdShiftAcc            0      0.00%     68.34% # Class of committed instruction
system.switch_cpus_1.commit.op_class_0::SimdSqrt            0      0.00%     68.34% # Class of committed instruction
system.switch_cpus_1.commit.op_class_0::SimdFloatAdd            0      0.00%     68.34% # Class of committed instruction
system.switch_cpus_1.commit.op_class_0::SimdFloatAlu            0      0.00%     68.34% # Class of committed instruction
system.switch_cpus_1.commit.op_class_0::SimdFloatCmp            0      0.00%     68.34% # Class of committed instruction
system.switch_cpus_1.commit.op_class_0::SimdFloatCvt            0      0.00%     68.34% # Class of committed instruction
system.switch_cpus_1.commit.op_class_0::SimdFloatDiv            0      0.00%     68.34% # Class of committed instruction
system.switch_cpus_1.commit.op_class_0::SimdFloatMisc            0      0.00%     68.34% # Class of committed instruction
system.switch_cpus_1.commit.op_class_0::SimdFloatMult            0      0.00%     68.34% # Class of committed instruction
system.switch_cpus_1.commit.op_class_0::SimdFloatMultAcc            0      0.00%     68.34% # Class of committed instruction
system.switch_cpus_1.commit.op_class_0::SimdFloatSqrt            0      0.00%     68.34% # Class of committed instruction
system.switch_cpus_1.commit.op_class_0::MemRead     49432701     24.65%     92.99% # Class of committed instruction
system.switch_cpus_1.commit.op_class_0::MemWrite     14065457      7.01%    100.00% # Class of committed instruction
system.switch_cpus_1.commit.op_class_0::FloatMemRead           19      0.00%    100.00% # Class of committed instruction
system.switch_cpus_1.commit.op_class_0::FloatMemWrite           18      0.00%    100.00% # Class of committed instruction
system.switch_cpus_1.commit.op_class_0::IprAccess            0      0.00%    100.00% # Class of committed instruction
system.switch_cpus_1.commit.op_class_0::InstPrefetch            0      0.00%    100.00% # Class of committed instruction
system.switch_cpus_1.commit.op_class_0::total    200538932                       # Class of committed instruction
system.switch_cpus_1.commit.bw_lim_events     13991418                       # number cycles where commit BW limit reached
system.switch_cpus_1.rob.rob_reads          519247331                       # The number of ROB reads
system.switch_cpus_1.rob.rob_writes         763786694                       # The number of ROB writes
system.switch_cpus_1.timesIdled                   150                       # Number of times that the entire CPU went into an idle state and unscheduled itself
system.switch_cpus_1.idleCycles                 11863                       # Total number of cycles that the CPU has spent unscheduled due to idling
system.switch_cpus_1.committedInsts         200000003                       # Number of Instructions Simulated
system.switch_cpus_1.committedOps           200000003                       # Number of Ops (including micro ops) Simulated
system.switch_cpus_1.cpi                     0.961390                       # CPI: Cycles Per Instruction
system.switch_cpus_1.cpi_total               0.961390                       # CPI: Total CPI of All Threads
system.switch_cpus_1.ipc                     1.040161                       # IPC: Instructions Per Cycle
system.switch_cpus_1.ipc_total               1.040161                       # IPC: Total IPC of All Threads
system.switch_cpus_1.int_regfile_reads      447825765                       # number of integer regfile reads
system.switch_cpus_1.int_regfile_writes     259560663                       # number of integer regfile writes
system.switch_cpus_1.fp_regfile_reads              63                       # number of floating regfile reads
system.switch_cpus_1.fp_regfile_writes            103                       # number of floating regfile writes
system.switch_cpus_1.misc_regfile_reads            12                       # number of misc regfile reads
system.switch_cpus_1.misc_regfile_writes            6                       # number of misc regfile writes
system.tol3bus.snoop_filter.tot_requests     15148791                       # Total number of requests made to the snoop filter.
system.tol3bus.snoop_filter.hit_single_requests      7572251                       # Number of requests hitting in the snoop filter with a single holder of the requested data.
system.tol3bus.snoop_filter.hit_multi_requests            0                       # Number of requests hitting in the snoop filter with multiple (>1) holders of the requested data.
system.tol3bus.snoop_filter.tot_snoops           3079                       # Total number of snoops made to the snoop filter.
system.tol3bus.snoop_filter.hit_single_snoops         3079                       # Number of snoops hitting in the snoop filter with a single holder of the requested data.
system.tol3bus.snoop_filter.hit_multi_snoops            0                       # Number of snoops hitting in the snoop filter with multiple (>1) holders of the requested data.
system.tol3bus.pwrStateResidencyTicks::UNDEFINED 191241978455133                       # Cumulative time (in ticks) in various power states
system.tol3bus.trans_dist::ReadResp           5401131                       # Transaction distribution
system.tol3bus.trans_dist::WritebackDirty      4452280                       # Transaction distribution
system.tol3bus.trans_dist::CleanEvict         3851394                       # Transaction distribution
system.tol3bus.trans_dist::UpgradeReq               4                       # Transaction distribution
system.tol3bus.trans_dist::UpgradeResp              4                       # Transaction distribution
system.tol3bus.trans_dist::ReadExReq          2175409                       # Transaction distribution
system.tol3bus.trans_dist::ReadExResp         2175409                       # Transaction distribution
system.tol3bus.trans_dist::ReadSharedReq      5401131                       # Transaction distribution
system.tol3bus.pkt_count_system.cpu.l2.mem_side::system.l3.cpu_side     22725335                       # Packet count per connected master and slave (bytes)
system.tol3bus.pkt_size_system.cpu.l2.mem_side::system.l3.cpu_side    736700800                       # Cumulative packet size per connected master and slave (bytes)
system.tol3bus.snoops                          731427                       # Total snoops (count)
system.tol3bus.snoopTraffic                  33143680                       # Total snoop traffic (bytes)
system.tol3bus.snoop_fanout::samples          8307971                       # Request fanout histogram
system.tol3bus.snoop_fanout::mean            0.000371                       # Request fanout histogram
system.tol3bus.snoop_fanout::stdev           0.019248                       # Request fanout histogram
system.tol3bus.snoop_fanout::underflows             0      0.00%      0.00% # Request fanout histogram
system.tol3bus.snoop_fanout::0                8304892     99.96%     99.96% # Request fanout histogram
system.tol3bus.snoop_fanout::1                   3079      0.04%    100.00% # Request fanout histogram
system.tol3bus.snoop_fanout::overflows              0      0.00%    100.00% # Request fanout histogram
system.tol3bus.snoop_fanout::min_value              0                       # Request fanout histogram
system.tol3bus.snoop_fanout::max_value              1                       # Request fanout histogram
system.tol3bus.snoop_fanout::total            8307971                       # Request fanout histogram
system.tol3bus.reqLayer0.occupancy         6354705933                       # Layer occupancy (ticks)
system.tol3bus.reqLayer0.utilization              0.5                       # Layer utilization (%)
system.tol3bus.respLayer0.occupancy        5045976972                       # Layer occupancy (ticks)
system.tol3bus.respLayer0.utilization             0.4                       # Layer utilization (%)

---------- End Simulation Statistics   ----------
