
---------- Begin Simulation Statistics ----------
sim_seconds                                  3.728648                       # Number of seconds simulated
sim_ticks                                3728647565388                       # Number of ticks simulated
final_tick                               73758620146734                       # Number of ticks from beginning of simulation (restored from checkpoints and never reset)
sim_freq                                 1000000000000                       # Frequency of simulated ticks
host_inst_rate                                 243542                       # Simulator instruction rate (inst/s)
host_op_rate                                   243542                       # Simulator op (including micro ops) rate (op/s)
host_tick_rate                              756734906                       # Simulator tick rate (ticks/s)
host_mem_usage                                2504288                       # Number of bytes of host memory used
host_seconds                                  4927.28                       # Real time elapsed on the host
sim_insts                                  1200000014                       # Number of instructions simulated
sim_ops                                    1200000014                       # Number of ops (including micro ops) simulated
system.voltage_domain.voltage                       1                       # Voltage in Volts
system.clk_domain.clock                          1000                       # Clock period in ticks
system.mem_ctrls0.pwrStateResidencyTicks::UNDEFINED 73758620146734                       # Cumulative time (in ticks) in various power states
system.mem_ctrls0.bytes_read::cpu.inst             64                       # Number of bytes read from this memory
system.mem_ctrls0.bytes_read::cpu.data            128                       # Number of bytes read from this memory
system.mem_ctrls0.bytes_read::switch_cpus.inst       128384                       # Number of bytes read from this memory
system.mem_ctrls0.bytes_read::switch_cpus.data    396747840                       # Number of bytes read from this memory
system.mem_ctrls0.bytes_read::switch_cpus_1.inst        36608                       # Number of bytes read from this memory
system.mem_ctrls0.bytes_read::switch_cpus_1.data     83999680                       # Number of bytes read from this memory
system.mem_ctrls0.bytes_read::total         480912704                       # Number of bytes read from this memory
system.mem_ctrls0.bytes_inst_read::cpu.inst           64                       # Number of instructions bytes read from this memory
system.mem_ctrls0.bytes_inst_read::switch_cpus.inst       128384                       # Number of instructions bytes read from this memory
system.mem_ctrls0.bytes_inst_read::switch_cpus_1.inst        36608                       # Number of instructions bytes read from this memory
system.mem_ctrls0.bytes_inst_read::total       165056                       # Number of instructions bytes read from this memory
system.mem_ctrls0.bytes_written::writebacks    167634240                       # Number of bytes written to this memory
system.mem_ctrls0.bytes_written::total      167634240                       # Number of bytes written to this memory
system.mem_ctrls0.num_reads::cpu.inst               1                       # Number of read requests responded to by this memory
system.mem_ctrls0.num_reads::cpu.data               2                       # Number of read requests responded to by this memory
system.mem_ctrls0.num_reads::switch_cpus.inst         2006                       # Number of read requests responded to by this memory
system.mem_ctrls0.num_reads::switch_cpus.data      6199185                       # Number of read requests responded to by this memory
system.mem_ctrls0.num_reads::switch_cpus_1.inst          572                       # Number of read requests responded to by this memory
system.mem_ctrls0.num_reads::switch_cpus_1.data      1312495                       # Number of read requests responded to by this memory
system.mem_ctrls0.num_reads::total            7514261                       # Number of read requests responded to by this memory
system.mem_ctrls0.num_writes::writebacks      2619285                       # Number of write requests responded to by this memory
system.mem_ctrls0.num_writes::total           2619285                       # Number of write requests responded to by this memory
system.mem_ctrls0.bw_read::cpu.inst                17                       # Total read bandwidth from this memory (bytes/s)
system.mem_ctrls0.bw_read::cpu.data                34                       # Total read bandwidth from this memory (bytes/s)
system.mem_ctrls0.bw_read::switch_cpus.inst        34432                       # Total read bandwidth from this memory (bytes/s)
system.mem_ctrls0.bw_read::switch_cpus.data    106405294                       # Total read bandwidth from this memory (bytes/s)
system.mem_ctrls0.bw_read::switch_cpus_1.inst         9818                       # Total read bandwidth from this memory (bytes/s)
system.mem_ctrls0.bw_read::switch_cpus_1.data     22528190                       # Total read bandwidth from this memory (bytes/s)
system.mem_ctrls0.bw_read::total            128977785                       # Total read bandwidth from this memory (bytes/s)
system.mem_ctrls0.bw_inst_read::cpu.inst           17                       # Instruction read bandwidth from this memory (bytes/s)
system.mem_ctrls0.bw_inst_read::switch_cpus.inst        34432                       # Instruction read bandwidth from this memory (bytes/s)
system.mem_ctrls0.bw_inst_read::switch_cpus_1.inst         9818                       # Instruction read bandwidth from this memory (bytes/s)
system.mem_ctrls0.bw_inst_read::total           44267                       # Instruction read bandwidth from this memory (bytes/s)
system.mem_ctrls0.bw_write::writebacks       44958457                       # Write bandwidth from this memory (bytes/s)
system.mem_ctrls0.bw_write::total            44958457                       # Write bandwidth from this memory (bytes/s)
system.mem_ctrls0.bw_total::writebacks       44958457                       # Total bandwidth to/from this memory (bytes/s)
system.mem_ctrls0.bw_total::cpu.inst               17                       # Total bandwidth to/from this memory (bytes/s)
system.mem_ctrls0.bw_total::cpu.data               34                       # Total bandwidth to/from this memory (bytes/s)
system.mem_ctrls0.bw_total::switch_cpus.inst        34432                       # Total bandwidth to/from this memory (bytes/s)
system.mem_ctrls0.bw_total::switch_cpus.data    106405294                       # Total bandwidth to/from this memory (bytes/s)
system.mem_ctrls0.bw_total::switch_cpus_1.inst         9818                       # Total bandwidth to/from this memory (bytes/s)
system.mem_ctrls0.bw_total::switch_cpus_1.data     22528190                       # Total bandwidth to/from this memory (bytes/s)
system.mem_ctrls0.bw_total::total           173936242                       # Total bandwidth to/from this memory (bytes/s)
system.mem_ctrls0.readReqs                    7514261                       # Number of read requests accepted
system.mem_ctrls0.writeReqs                   2619285                       # Number of write requests accepted
system.mem_ctrls0.readBursts                  7514261                       # Number of DRAM read bursts, including those serviced by the write queue
system.mem_ctrls0.writeBursts                 2619285                       # Number of DRAM write bursts, including those merged in the write queue
system.mem_ctrls0.bytesReadDRAM             480433408                       # Total number of bytes read from DRAM
system.mem_ctrls0.bytesReadWrQ                 479296                       # Total number of bytes read from write queue
system.mem_ctrls0.bytesWritten              167632192                       # Total number of bytes written to DRAM
system.mem_ctrls0.bytesReadSys              480912704                       # Total read bytes from the system interface side
system.mem_ctrls0.bytesWrittenSys           167634240                       # Total written bytes from the system interface side
system.mem_ctrls0.servicedByWrQ                  7489                       # Number of DRAM read bursts serviced by the write queue
system.mem_ctrls0.mergedWrBursts                    0                       # Number of DRAM write bursts merged with an existing one
system.mem_ctrls0.neitherReadNorWriteReqs            0                       # Number of requests that are neither read nor write
system.mem_ctrls0.perBankRdBursts::0           494289                       # Per bank write bursts
system.mem_ctrls0.perBankRdBursts::1           485876                       # Per bank write bursts
system.mem_ctrls0.perBankRdBursts::2           469559                       # Per bank write bursts
system.mem_ctrls0.perBankRdBursts::3           468539                       # Per bank write bursts
system.mem_ctrls0.perBankRdBursts::4           461132                       # Per bank write bursts
system.mem_ctrls0.perBankRdBursts::5           477628                       # Per bank write bursts
system.mem_ctrls0.perBankRdBursts::6           460123                       # Per bank write bursts
system.mem_ctrls0.perBankRdBursts::7           477317                       # Per bank write bursts
system.mem_ctrls0.perBankRdBursts::8           474681                       # Per bank write bursts
system.mem_ctrls0.perBankRdBursts::9           470988                       # Per bank write bursts
system.mem_ctrls0.perBankRdBursts::10          454073                       # Per bank write bursts
system.mem_ctrls0.perBankRdBursts::11          461439                       # Per bank write bursts
system.mem_ctrls0.perBankRdBursts::12          450241                       # Per bank write bursts
system.mem_ctrls0.perBankRdBursts::13          452436                       # Per bank write bursts
system.mem_ctrls0.perBankRdBursts::14          462390                       # Per bank write bursts
system.mem_ctrls0.perBankRdBursts::15          486061                       # Per bank write bursts
system.mem_ctrls0.perBankWrBursts::0           173671                       # Per bank write bursts
system.mem_ctrls0.perBankWrBursts::1           162667                       # Per bank write bursts
system.mem_ctrls0.perBankWrBursts::2           168446                       # Per bank write bursts
system.mem_ctrls0.perBankWrBursts::3           165029                       # Per bank write bursts
system.mem_ctrls0.perBankWrBursts::4           162359                       # Per bank write bursts
system.mem_ctrls0.perBankWrBursts::5           164685                       # Per bank write bursts
system.mem_ctrls0.perBankWrBursts::6           159894                       # Per bank write bursts
system.mem_ctrls0.perBankWrBursts::7           160087                       # Per bank write bursts
system.mem_ctrls0.perBankWrBursts::8           160157                       # Per bank write bursts
system.mem_ctrls0.perBankWrBursts::9           157846                       # Per bank write bursts
system.mem_ctrls0.perBankWrBursts::10          158856                       # Per bank write bursts
system.mem_ctrls0.perBankWrBursts::11          158002                       # Per bank write bursts
system.mem_ctrls0.perBankWrBursts::12          156137                       # Per bank write bursts
system.mem_ctrls0.perBankWrBursts::13          163756                       # Per bank write bursts
system.mem_ctrls0.perBankWrBursts::14          172323                       # Per bank write bursts
system.mem_ctrls0.perBankWrBursts::15          175338                       # Per bank write bursts
system.mem_ctrls0.numRdRetry                        0                       # Number of times read queue was full causing retry
system.mem_ctrls0.numWrRetry                        0                       # Number of times write queue was full causing retry
system.mem_ctrls0.totGap                 3728646838782                       # Total gap between requests
system.mem_ctrls0.readPktSize::0                    0                       # Read request sizes (log2)
system.mem_ctrls0.readPktSize::1                    0                       # Read request sizes (log2)
system.mem_ctrls0.readPktSize::2                    0                       # Read request sizes (log2)
system.mem_ctrls0.readPktSize::3                    0                       # Read request sizes (log2)
system.mem_ctrls0.readPktSize::4                    0                       # Read request sizes (log2)
system.mem_ctrls0.readPktSize::5                    0                       # Read request sizes (log2)
system.mem_ctrls0.readPktSize::6              7514261                       # Read request sizes (log2)
system.mem_ctrls0.writePktSize::0                   0                       # Write request sizes (log2)
system.mem_ctrls0.writePktSize::1                   0                       # Write request sizes (log2)
system.mem_ctrls0.writePktSize::2                   0                       # Write request sizes (log2)
system.mem_ctrls0.writePktSize::3                   0                       # Write request sizes (log2)
system.mem_ctrls0.writePktSize::4                   0                       # Write request sizes (log2)
system.mem_ctrls0.writePktSize::5                   0                       # Write request sizes (log2)
system.mem_ctrls0.writePktSize::6             2619285                       # Write request sizes (log2)
system.mem_ctrls0.rdQLenPdf::0                7172737                       # What read queue length does an incoming req see
system.mem_ctrls0.rdQLenPdf::1                 290589                       # What read queue length does an incoming req see
system.mem_ctrls0.rdQLenPdf::2                  40191                       # What read queue length does an incoming req see
system.mem_ctrls0.rdQLenPdf::3                   3254                       # What read queue length does an incoming req see
system.mem_ctrls0.rdQLenPdf::4                      1                       # What read queue length does an incoming req see
system.mem_ctrls0.rdQLenPdf::5                      0                       # What read queue length does an incoming req see
system.mem_ctrls0.rdQLenPdf::6                      0                       # What read queue length does an incoming req see
system.mem_ctrls0.rdQLenPdf::7                      0                       # What read queue length does an incoming req see
system.mem_ctrls0.rdQLenPdf::8                      0                       # What read queue length does an incoming req see
system.mem_ctrls0.rdQLenPdf::9                      0                       # What read queue length does an incoming req see
system.mem_ctrls0.rdQLenPdf::10                     0                       # What read queue length does an incoming req see
system.mem_ctrls0.rdQLenPdf::11                     0                       # What read queue length does an incoming req see
system.mem_ctrls0.rdQLenPdf::12                     0                       # What read queue length does an incoming req see
system.mem_ctrls0.rdQLenPdf::13                     0                       # What read queue length does an incoming req see
system.mem_ctrls0.rdQLenPdf::14                     0                       # What read queue length does an incoming req see
system.mem_ctrls0.rdQLenPdf::15                     0                       # What read queue length does an incoming req see
system.mem_ctrls0.rdQLenPdf::16                     0                       # What read queue length does an incoming req see
system.mem_ctrls0.rdQLenPdf::17                     0                       # What read queue length does an incoming req see
system.mem_ctrls0.rdQLenPdf::18                     0                       # What read queue length does an incoming req see
system.mem_ctrls0.rdQLenPdf::19                     0                       # What read queue length does an incoming req see
system.mem_ctrls0.rdQLenPdf::20                     0                       # What read queue length does an incoming req see
system.mem_ctrls0.rdQLenPdf::21                     0                       # What read queue length does an incoming req see
system.mem_ctrls0.rdQLenPdf::22                     0                       # What read queue length does an incoming req see
system.mem_ctrls0.rdQLenPdf::23                     0                       # What read queue length does an incoming req see
system.mem_ctrls0.rdQLenPdf::24                     0                       # What read queue length does an incoming req see
system.mem_ctrls0.rdQLenPdf::25                     0                       # What read queue length does an incoming req see
system.mem_ctrls0.rdQLenPdf::26                     0                       # What read queue length does an incoming req see
system.mem_ctrls0.rdQLenPdf::27                     0                       # What read queue length does an incoming req see
system.mem_ctrls0.rdQLenPdf::28                     0                       # What read queue length does an incoming req see
system.mem_ctrls0.rdQLenPdf::29                     0                       # What read queue length does an incoming req see
system.mem_ctrls0.rdQLenPdf::30                     0                       # What read queue length does an incoming req see
system.mem_ctrls0.rdQLenPdf::31                     0                       # What read queue length does an incoming req see
system.mem_ctrls0.wrQLenPdf::0                      2                       # What write queue length does an incoming req see
system.mem_ctrls0.wrQLenPdf::1                      2                       # What write queue length does an incoming req see
system.mem_ctrls0.wrQLenPdf::2                      2                       # What write queue length does an incoming req see
system.mem_ctrls0.wrQLenPdf::3                      2                       # What write queue length does an incoming req see
system.mem_ctrls0.wrQLenPdf::4                      2                       # What write queue length does an incoming req see
system.mem_ctrls0.wrQLenPdf::5                      2                       # What write queue length does an incoming req see
system.mem_ctrls0.wrQLenPdf::6                      2                       # What write queue length does an incoming req see
system.mem_ctrls0.wrQLenPdf::7                      2                       # What write queue length does an incoming req see
system.mem_ctrls0.wrQLenPdf::8                      2                       # What write queue length does an incoming req see
system.mem_ctrls0.wrQLenPdf::9                      2                       # What write queue length does an incoming req see
system.mem_ctrls0.wrQLenPdf::10                     2                       # What write queue length does an incoming req see
system.mem_ctrls0.wrQLenPdf::11                     2                       # What write queue length does an incoming req see
system.mem_ctrls0.wrQLenPdf::12                     2                       # What write queue length does an incoming req see
system.mem_ctrls0.wrQLenPdf::13                     2                       # What write queue length does an incoming req see
system.mem_ctrls0.wrQLenPdf::14                     2                       # What write queue length does an incoming req see
system.mem_ctrls0.wrQLenPdf::15                118675                       # What write queue length does an incoming req see
system.mem_ctrls0.wrQLenPdf::16                123050                       # What write queue length does an incoming req see
system.mem_ctrls0.wrQLenPdf::17                145875                       # What write queue length does an incoming req see
system.mem_ctrls0.wrQLenPdf::18                148251                       # What write queue length does an incoming req see
system.mem_ctrls0.wrQLenPdf::19                148653                       # What write queue length does an incoming req see
system.mem_ctrls0.wrQLenPdf::20                148723                       # What write queue length does an incoming req see
system.mem_ctrls0.wrQLenPdf::21                148838                       # What write queue length does an incoming req see
system.mem_ctrls0.wrQLenPdf::22                149530                       # What write queue length does an incoming req see
system.mem_ctrls0.wrQLenPdf::23                150086                       # What write queue length does an incoming req see
system.mem_ctrls0.wrQLenPdf::24                149174                       # What write queue length does an incoming req see
system.mem_ctrls0.wrQLenPdf::25                148718                       # What write queue length does an incoming req see
system.mem_ctrls0.wrQLenPdf::26                148639                       # What write queue length does an incoming req see
system.mem_ctrls0.wrQLenPdf::27                148563                       # What write queue length does an incoming req see
system.mem_ctrls0.wrQLenPdf::28                148640                       # What write queue length does an incoming req see
system.mem_ctrls0.wrQLenPdf::29                148608                       # What write queue length does an incoming req see
system.mem_ctrls0.wrQLenPdf::30                149014                       # What write queue length does an incoming req see
system.mem_ctrls0.wrQLenPdf::31                148070                       # What write queue length does an incoming req see
system.mem_ctrls0.wrQLenPdf::32                147997                       # What write queue length does an incoming req see
system.mem_ctrls0.wrQLenPdf::33                   114                       # What write queue length does an incoming req see
system.mem_ctrls0.wrQLenPdf::34                    29                       # What write queue length does an incoming req see
system.mem_ctrls0.wrQLenPdf::35                     6                       # What write queue length does an incoming req see
system.mem_ctrls0.wrQLenPdf::36                     1                       # What write queue length does an incoming req see
system.mem_ctrls0.wrQLenPdf::37                     1                       # What write queue length does an incoming req see
system.mem_ctrls0.wrQLenPdf::38                     0                       # What write queue length does an incoming req see
system.mem_ctrls0.wrQLenPdf::39                     0                       # What write queue length does an incoming req see
system.mem_ctrls0.wrQLenPdf::40                     0                       # What write queue length does an incoming req see
system.mem_ctrls0.wrQLenPdf::41                     0                       # What write queue length does an incoming req see
system.mem_ctrls0.wrQLenPdf::42                     0                       # What write queue length does an incoming req see
system.mem_ctrls0.wrQLenPdf::43                     0                       # What write queue length does an incoming req see
system.mem_ctrls0.wrQLenPdf::44                     0                       # What write queue length does an incoming req see
system.mem_ctrls0.wrQLenPdf::45                     0                       # What write queue length does an incoming req see
system.mem_ctrls0.wrQLenPdf::46                     0                       # What write queue length does an incoming req see
system.mem_ctrls0.wrQLenPdf::47                     0                       # What write queue length does an incoming req see
system.mem_ctrls0.wrQLenPdf::48                     0                       # What write queue length does an incoming req see
system.mem_ctrls0.wrQLenPdf::49                     0                       # What write queue length does an incoming req see
system.mem_ctrls0.wrQLenPdf::50                     0                       # What write queue length does an incoming req see
system.mem_ctrls0.wrQLenPdf::51                     0                       # What write queue length does an incoming req see
system.mem_ctrls0.wrQLenPdf::52                     0                       # What write queue length does an incoming req see
system.mem_ctrls0.wrQLenPdf::53                     0                       # What write queue length does an incoming req see
system.mem_ctrls0.wrQLenPdf::54                     0                       # What write queue length does an incoming req see
system.mem_ctrls0.wrQLenPdf::55                     0                       # What write queue length does an incoming req see
system.mem_ctrls0.wrQLenPdf::56                     0                       # What write queue length does an incoming req see
system.mem_ctrls0.wrQLenPdf::57                     0                       # What write queue length does an incoming req see
system.mem_ctrls0.wrQLenPdf::58                     0                       # What write queue length does an incoming req see
system.mem_ctrls0.wrQLenPdf::59                     0                       # What write queue length does an incoming req see
system.mem_ctrls0.wrQLenPdf::60                     0                       # What write queue length does an incoming req see
system.mem_ctrls0.wrQLenPdf::61                     0                       # What write queue length does an incoming req see
system.mem_ctrls0.wrQLenPdf::62                     0                       # What write queue length does an incoming req see
system.mem_ctrls0.wrQLenPdf::63                     0                       # What write queue length does an incoming req see
system.mem_ctrls0.bytesPerActivate::samples      4809974                       # Bytes accessed per row activation
system.mem_ctrls0.bytesPerActivate::mean   134.733635                       # Bytes accessed per row activation
system.mem_ctrls0.bytesPerActivate::gmean    96.382298                       # Bytes accessed per row activation
system.mem_ctrls0.bytesPerActivate::stdev   164.774222                       # Bytes accessed per row activation
system.mem_ctrls0.bytesPerActivate::0-127      3196103     66.45%     66.45% # Bytes accessed per row activation
system.mem_ctrls0.bytesPerActivate::128-255      1011461     21.03%     87.48% # Bytes accessed per row activation
system.mem_ctrls0.bytesPerActivate::256-383       245796      5.11%     92.59% # Bytes accessed per row activation
system.mem_ctrls0.bytesPerActivate::384-511       108681      2.26%     94.85% # Bytes accessed per row activation
system.mem_ctrls0.bytesPerActivate::512-639        77271      1.61%     96.45% # Bytes accessed per row activation
system.mem_ctrls0.bytesPerActivate::640-767        56337      1.17%     97.62% # Bytes accessed per row activation
system.mem_ctrls0.bytesPerActivate::768-895        41229      0.86%     98.48% # Bytes accessed per row activation
system.mem_ctrls0.bytesPerActivate::896-1023        27511      0.57%     99.05% # Bytes accessed per row activation
system.mem_ctrls0.bytesPerActivate::1024-1151        45585      0.95%    100.00% # Bytes accessed per row activation
system.mem_ctrls0.bytesPerActivate::total      4809974                       # Bytes accessed per row activation
system.mem_ctrls0.rdPerTurnAround::samples       147950                       # Reads before turning the bus around for writes
system.mem_ctrls0.rdPerTurnAround::mean     50.738236                       # Reads before turning the bus around for writes
system.mem_ctrls0.rdPerTurnAround::stdev   114.364213                       # Reads before turning the bus around for writes
system.mem_ctrls0.rdPerTurnAround::0-1023       147782     99.89%     99.89% # Reads before turning the bus around for writes
system.mem_ctrls0.rdPerTurnAround::1024-2047          132      0.09%     99.98% # Reads before turning the bus around for writes
system.mem_ctrls0.rdPerTurnAround::2048-3071           28      0.02%     99.99% # Reads before turning the bus around for writes
system.mem_ctrls0.rdPerTurnAround::3072-4095            7      0.00%    100.00% # Reads before turning the bus around for writes
system.mem_ctrls0.rdPerTurnAround::30720-31743            1      0.00%    100.00% # Reads before turning the bus around for writes
system.mem_ctrls0.rdPerTurnAround::total       147950                       # Reads before turning the bus around for writes
system.mem_ctrls0.wrPerTurnAround::samples       147950                       # Writes before turning the bus around for reads
system.mem_ctrls0.wrPerTurnAround::mean     17.703636                       # Writes before turning the bus around for reads
system.mem_ctrls0.wrPerTurnAround::gmean    17.683030                       # Writes before turning the bus around for reads
system.mem_ctrls0.wrPerTurnAround::stdev     0.839394                       # Writes before turning the bus around for reads
system.mem_ctrls0.wrPerTurnAround::16           25206     17.04%     17.04% # Writes before turning the bus around for reads
system.mem_ctrls0.wrPerTurnAround::17            3440      2.33%     19.36% # Writes before turning the bus around for reads
system.mem_ctrls0.wrPerTurnAround::18          110485     74.68%     94.04% # Writes before turning the bus around for reads
system.mem_ctrls0.wrPerTurnAround::19            7853      5.31%     99.35% # Writes before turning the bus around for reads
system.mem_ctrls0.wrPerTurnAround::20             801      0.54%     99.89% # Writes before turning the bus around for reads
system.mem_ctrls0.wrPerTurnAround::21             125      0.08%     99.97% # Writes before turning the bus around for reads
system.mem_ctrls0.wrPerTurnAround::22              31      0.02%     99.99% # Writes before turning the bus around for reads
system.mem_ctrls0.wrPerTurnAround::23               5      0.00%    100.00% # Writes before turning the bus around for reads
system.mem_ctrls0.wrPerTurnAround::24               2      0.00%    100.00% # Writes before turning the bus around for reads
system.mem_ctrls0.wrPerTurnAround::25               2      0.00%    100.00% # Writes before turning the bus around for reads
system.mem_ctrls0.wrPerTurnAround::total       147950                       # Writes before turning the bus around for reads
system.mem_ctrls0.totQLat                151450668585                       # Total ticks spent queuing
system.mem_ctrls0.totMemAccLat           292202643585                       # Total ticks spent from burst creation until serviced by the DRAM
system.mem_ctrls0.totBusLat               37533860000                       # Total ticks spent in databus transfers
system.mem_ctrls0.avgQLat                    20175.21                       # Average queueing delay per DRAM burst
system.mem_ctrls0.avgBusLat                   5000.00                       # Average bus latency per DRAM burst
system.mem_ctrls0.avgMemAccLat               38925.21                       # Average memory access latency per DRAM burst
system.mem_ctrls0.avgRdBW                      128.85                       # Average DRAM read bandwidth in MiByte/s
system.mem_ctrls0.avgWrBW                       44.96                       # Average achieved write bandwidth in MiByte/s
system.mem_ctrls0.avgRdBWSys                   128.98                       # Average system read bandwidth in MiByte/s
system.mem_ctrls0.avgWrBWSys                    44.96                       # Average system write bandwidth in MiByte/s
system.mem_ctrls0.peakBW                     12800.00                       # Theoretical peak bandwidth in MiByte/s
system.mem_ctrls0.busUtil                        1.36                       # Data bus utilization in percentage
system.mem_ctrls0.busUtilRead                    1.01                       # Data bus utilization in percentage for reads
system.mem_ctrls0.busUtilWrite                   0.35                       # Data bus utilization in percentage for writes
system.mem_ctrls0.avgRdQLen                      1.02                       # Average read queue length when enqueuing
system.mem_ctrls0.avgWrQLen                     24.57                       # Average write queue length when enqueuing
system.mem_ctrls0.readRowHits                 4685857                       # Number of row buffer hits during reads
system.mem_ctrls0.writeRowHits                 630189                       # Number of row buffer hits during writes
system.mem_ctrls0.readRowHitRate                62.42                       # Row buffer hit rate for reads
system.mem_ctrls0.writeRowHitRate               24.06                       # Row buffer hit rate for writes
system.mem_ctrls0.avgGap                    367950.85                       # Average gap between requests
system.mem_ctrls0.pageHitRate                   52.50                       # Row buffer hit rate, read and write combined
system.mem_ctrls0_0.actEnergy             17226620880                       # Energy for activate commands per rank (pJ)
system.mem_ctrls0_0.preEnergy              9156158550                       # Energy for precharge commands per rank (pJ)
system.mem_ctrls0_0.readEnergy            27092465820                       # Energy for read commands per rank (pJ)
system.mem_ctrls0_0.writeEnergy            6873894360                       # Energy for write commands per rank (pJ)
system.mem_ctrls0_0.refreshEnergy        282265429680.000061                       # Energy for refresh commands per rank (pJ)
system.mem_ctrls0_0.actBackEnergy        171795636780                       # Energy for active background per rank (pJ)
system.mem_ctrls0_0.preBackEnergy          7984581600                       # Energy for precharge background per rank (pJ)
system.mem_ctrls0_0.actPowerDownEnergy   1155337239660                       # Energy for active power-down per rank (pJ)
system.mem_ctrls0_0.prePowerDownEnergy   192310895520                       # Energy for precharge power-down per rank (pJ)
system.mem_ctrls0_0.selfRefreshEnergy     82182604410                       # Energy for self refresh per rank (pJ)
system.mem_ctrls0_0.totalEnergy          1952357004690                       # Total energy per rank (pJ)
system.mem_ctrls0_0.averagePower           523.609954                       # Core power per rank (mW)
system.mem_ctrls0_0.totalIdleTime        3330824801938                       # Total Idle time Per DRAM Rank
system.mem_ctrls0_0.memoryStateTime::IDLE   7863484670                       # Time in different power states
system.mem_ctrls0_0.memoryStateTime::REF 119535012000                       # Time in different power states
system.mem_ctrls0_0.memoryStateTime::SREF 296373144221                       # Time in different power states
system.mem_ctrls0_0.memoryStateTime::PRE_PDN 500810112879                       # Time in different power states
system.mem_ctrls0_0.memoryStateTime::ACT 270423753832                       # Time in different power states
system.mem_ctrls0_0.memoryStateTime::ACT_PDN 2533642057786                       # Time in different power states
system.mem_ctrls0_1.actEnergy             17116629180                       # Energy for activate commands per rank (pJ)
system.mem_ctrls0_1.preEnergy              9097692780                       # Energy for precharge commands per rank (pJ)
system.mem_ctrls0_1.readEnergy            26505886260                       # Energy for read commands per rank (pJ)
system.mem_ctrls0_1.writeEnergy            6798606300                       # Energy for write commands per rank (pJ)
system.mem_ctrls0_1.refreshEnergy        281538925200.000061                       # Energy for refresh commands per rank (pJ)
system.mem_ctrls0_1.actBackEnergy        171662576550                       # Energy for active background per rank (pJ)
system.mem_ctrls0_1.preBackEnergy          8089639680                       # Energy for precharge background per rank (pJ)
system.mem_ctrls0_1.actPowerDownEnergy   1144776561810                       # Energy for active power-down per rank (pJ)
system.mem_ctrls0_1.prePowerDownEnergy   193763380320                       # Energy for precharge power-down per rank (pJ)
system.mem_ctrls0_1.selfRefreshEnergy     87614014365                       # Energy for self refresh per rank (pJ)
system.mem_ctrls0_1.totalEnergy          1947089850135                       # Total energy per rank (pJ)
system.mem_ctrls0_1.averagePower           522.197335                       # Core power per rank (mW)
system.mem_ctrls0_1.totalIdleTime        3330846180083                       # Total Idle time Per DRAM Rank
system.mem_ctrls0_1.memoryStateTime::IDLE   8256572992                       # Time in different power states
system.mem_ctrls0_1.memoryStateTime::REF 119234418000                       # Time in different power states
system.mem_ctrls0_1.memoryStateTime::SREF 315780424254                       # Time in different power states
system.mem_ctrls0_1.memoryStateTime::PRE_PDN 504590190800                       # Time in different power states
system.mem_ctrls0_1.memoryStateTime::ACT 270309421589                       # Time in different power states
system.mem_ctrls0_1.memoryStateTime::ACT_PDN 2510476537753                       # Time in different power states
system.mem_ctrls1.pwrStateResidencyTicks::UNDEFINED 73758620146734                       # Cumulative time (in ticks) in various power states
system.mem_ctrls1.bytes_read::cpu.inst             64                       # Number of bytes read from this memory
system.mem_ctrls1.bytes_read::switch_cpus.inst       115392                       # Number of bytes read from this memory
system.mem_ctrls1.bytes_read::switch_cpus.data    397739200                       # Number of bytes read from this memory
system.mem_ctrls1.bytes_read::switch_cpus_1.inst        36096                       # Number of bytes read from this memory
system.mem_ctrls1.bytes_read::switch_cpus_1.data     84171840                       # Number of bytes read from this memory
system.mem_ctrls1.bytes_read::total         482062592                       # Number of bytes read from this memory
system.mem_ctrls1.bytes_inst_read::cpu.inst           64                       # Number of instructions bytes read from this memory
system.mem_ctrls1.bytes_inst_read::switch_cpus.inst       115392                       # Number of instructions bytes read from this memory
system.mem_ctrls1.bytes_inst_read::switch_cpus_1.inst        36096                       # Number of instructions bytes read from this memory
system.mem_ctrls1.bytes_inst_read::total       151552                       # Number of instructions bytes read from this memory
system.mem_ctrls1.bytes_written::writebacks    167864256                       # Number of bytes written to this memory
system.mem_ctrls1.bytes_written::total      167864256                       # Number of bytes written to this memory
system.mem_ctrls1.num_reads::cpu.inst               1                       # Number of read requests responded to by this memory
system.mem_ctrls1.num_reads::switch_cpus.inst         1803                       # Number of read requests responded to by this memory
system.mem_ctrls1.num_reads::switch_cpus.data      6214675                       # Number of read requests responded to by this memory
system.mem_ctrls1.num_reads::switch_cpus_1.inst          564                       # Number of read requests responded to by this memory
system.mem_ctrls1.num_reads::switch_cpus_1.data      1315185                       # Number of read requests responded to by this memory
system.mem_ctrls1.num_reads::total            7532228                       # Number of read requests responded to by this memory
system.mem_ctrls1.num_writes::writebacks      2622879                       # Number of write requests responded to by this memory
system.mem_ctrls1.num_writes::total           2622879                       # Number of write requests responded to by this memory
system.mem_ctrls1.bw_read::cpu.inst                17                       # Total read bandwidth from this memory (bytes/s)
system.mem_ctrls1.bw_read::switch_cpus.inst        30947                       # Total read bandwidth from this memory (bytes/s)
system.mem_ctrls1.bw_read::switch_cpus.data    106671170                       # Total read bandwidth from this memory (bytes/s)
system.mem_ctrls1.bw_read::switch_cpus_1.inst         9681                       # Total read bandwidth from this memory (bytes/s)
system.mem_ctrls1.bw_read::switch_cpus_1.data     22574362                       # Total read bandwidth from this memory (bytes/s)
system.mem_ctrls1.bw_read::total            129286178                       # Total read bandwidth from this memory (bytes/s)
system.mem_ctrls1.bw_inst_read::cpu.inst           17                       # Instruction read bandwidth from this memory (bytes/s)
system.mem_ctrls1.bw_inst_read::switch_cpus.inst        30947                       # Instruction read bandwidth from this memory (bytes/s)
system.mem_ctrls1.bw_inst_read::switch_cpus_1.inst         9681                       # Instruction read bandwidth from this memory (bytes/s)
system.mem_ctrls1.bw_inst_read::total           40645                       # Instruction read bandwidth from this memory (bytes/s)
system.mem_ctrls1.bw_write::writebacks       45020146                       # Write bandwidth from this memory (bytes/s)
system.mem_ctrls1.bw_write::total            45020146                       # Write bandwidth from this memory (bytes/s)
system.mem_ctrls1.bw_total::writebacks       45020146                       # Total bandwidth to/from this memory (bytes/s)
system.mem_ctrls1.bw_total::cpu.inst               17                       # Total bandwidth to/from this memory (bytes/s)
system.mem_ctrls1.bw_total::switch_cpus.inst        30947                       # Total bandwidth to/from this memory (bytes/s)
system.mem_ctrls1.bw_total::switch_cpus.data    106671170                       # Total bandwidth to/from this memory (bytes/s)
system.mem_ctrls1.bw_total::switch_cpus_1.inst         9681                       # Total bandwidth to/from this memory (bytes/s)
system.mem_ctrls1.bw_total::switch_cpus_1.data     22574362                       # Total bandwidth to/from this memory (bytes/s)
system.mem_ctrls1.bw_total::total           174306323                       # Total bandwidth to/from this memory (bytes/s)
system.mem_ctrls1.readReqs                    7532228                       # Number of read requests accepted
system.mem_ctrls1.writeReqs                   2622879                       # Number of write requests accepted
system.mem_ctrls1.readBursts                  7532228                       # Number of DRAM read bursts, including those serviced by the write queue
system.mem_ctrls1.writeBursts                 2622879                       # Number of DRAM write bursts, including those merged in the write queue
system.mem_ctrls1.bytesReadDRAM             481573120                       # Total number of bytes read from DRAM
system.mem_ctrls1.bytesReadWrQ                 489472                       # Total number of bytes read from write queue
system.mem_ctrls1.bytesWritten              167862912                       # Total number of bytes written to DRAM
system.mem_ctrls1.bytesReadSys              482062592                       # Total read bytes from the system interface side
system.mem_ctrls1.bytesWrittenSys           167864256                       # Total written bytes from the system interface side
system.mem_ctrls1.servicedByWrQ                  7648                       # Number of DRAM read bursts serviced by the write queue
system.mem_ctrls1.mergedWrBursts                    1                       # Number of DRAM write bursts merged with an existing one
system.mem_ctrls1.neitherReadNorWriteReqs            0                       # Number of requests that are neither read nor write
system.mem_ctrls1.perBankRdBursts::0           493600                       # Per bank write bursts
system.mem_ctrls1.perBankRdBursts::1           486835                       # Per bank write bursts
system.mem_ctrls1.perBankRdBursts::2           470614                       # Per bank write bursts
system.mem_ctrls1.perBankRdBursts::3           471578                       # Per bank write bursts
system.mem_ctrls1.perBankRdBursts::4           463240                       # Per bank write bursts
system.mem_ctrls1.perBankRdBursts::5           478568                       # Per bank write bursts
system.mem_ctrls1.perBankRdBursts::6           464426                       # Per bank write bursts
system.mem_ctrls1.perBankRdBursts::7           474382                       # Per bank write bursts
system.mem_ctrls1.perBankRdBursts::8           479647                       # Per bank write bursts
system.mem_ctrls1.perBankRdBursts::9           465799                       # Per bank write bursts
system.mem_ctrls1.perBankRdBursts::10          459065                       # Per bank write bursts
system.mem_ctrls1.perBankRdBursts::11          460817                       # Per bank write bursts
system.mem_ctrls1.perBankRdBursts::12          451406                       # Per bank write bursts
system.mem_ctrls1.perBankRdBursts::13          458930                       # Per bank write bursts
system.mem_ctrls1.perBankRdBursts::14          461659                       # Per bank write bursts
system.mem_ctrls1.perBankRdBursts::15          484014                       # Per bank write bursts
system.mem_ctrls1.perBankWrBursts::0           173993                       # Per bank write bursts
system.mem_ctrls1.perBankWrBursts::1           163600                       # Per bank write bursts
system.mem_ctrls1.perBankWrBursts::2           168113                       # Per bank write bursts
system.mem_ctrls1.perBankWrBursts::3           165777                       # Per bank write bursts
system.mem_ctrls1.perBankWrBursts::4           163182                       # Per bank write bursts
system.mem_ctrls1.perBankWrBursts::5           164176                       # Per bank write bursts
system.mem_ctrls1.perBankWrBursts::6           160546                       # Per bank write bursts
system.mem_ctrls1.perBankWrBursts::7           160000                       # Per bank write bursts
system.mem_ctrls1.perBankWrBursts::8           160730                       # Per bank write bursts
system.mem_ctrls1.perBankWrBursts::9           157478                       # Per bank write bursts
system.mem_ctrls1.perBankWrBursts::10          159286                       # Per bank write bursts
system.mem_ctrls1.perBankWrBursts::11          158294                       # Per bank write bursts
system.mem_ctrls1.perBankWrBursts::12          156161                       # Per bank write bursts
system.mem_ctrls1.perBankWrBursts::13          163793                       # Per bank write bursts
system.mem_ctrls1.perBankWrBursts::14          172822                       # Per bank write bursts
system.mem_ctrls1.perBankWrBursts::15          174907                       # Per bank write bursts
system.mem_ctrls1.numRdRetry                        0                       # Number of times read queue was full causing retry
system.mem_ctrls1.numWrRetry                        0                       # Number of times write queue was full causing retry
system.mem_ctrls1.totGap                 3728647403550                       # Total gap between requests
system.mem_ctrls1.readPktSize::0                    0                       # Read request sizes (log2)
system.mem_ctrls1.readPktSize::1                    0                       # Read request sizes (log2)
system.mem_ctrls1.readPktSize::2                    0                       # Read request sizes (log2)
system.mem_ctrls1.readPktSize::3                    0                       # Read request sizes (log2)
system.mem_ctrls1.readPktSize::4                    0                       # Read request sizes (log2)
system.mem_ctrls1.readPktSize::5                    0                       # Read request sizes (log2)
system.mem_ctrls1.readPktSize::6              7532228                       # Read request sizes (log2)
system.mem_ctrls1.writePktSize::0                   0                       # Write request sizes (log2)
system.mem_ctrls1.writePktSize::1                   0                       # Write request sizes (log2)
system.mem_ctrls1.writePktSize::2                   0                       # Write request sizes (log2)
system.mem_ctrls1.writePktSize::3                   0                       # Write request sizes (log2)
system.mem_ctrls1.writePktSize::4                   0                       # Write request sizes (log2)
system.mem_ctrls1.writePktSize::5                   0                       # Write request sizes (log2)
system.mem_ctrls1.writePktSize::6             2622879                       # Write request sizes (log2)
system.mem_ctrls1.rdQLenPdf::0                7190260                       # What read queue length does an incoming req see
system.mem_ctrls1.rdQLenPdf::1                 290882                       # What read queue length does an incoming req see
system.mem_ctrls1.rdQLenPdf::2                  40175                       # What read queue length does an incoming req see
system.mem_ctrls1.rdQLenPdf::3                   3262                       # What read queue length does an incoming req see
system.mem_ctrls1.rdQLenPdf::4                      1                       # What read queue length does an incoming req see
system.mem_ctrls1.rdQLenPdf::5                      0                       # What read queue length does an incoming req see
system.mem_ctrls1.rdQLenPdf::6                      0                       # What read queue length does an incoming req see
system.mem_ctrls1.rdQLenPdf::7                      0                       # What read queue length does an incoming req see
system.mem_ctrls1.rdQLenPdf::8                      0                       # What read queue length does an incoming req see
system.mem_ctrls1.rdQLenPdf::9                      0                       # What read queue length does an incoming req see
system.mem_ctrls1.rdQLenPdf::10                     0                       # What read queue length does an incoming req see
system.mem_ctrls1.rdQLenPdf::11                     0                       # What read queue length does an incoming req see
system.mem_ctrls1.rdQLenPdf::12                     0                       # What read queue length does an incoming req see
system.mem_ctrls1.rdQLenPdf::13                     0                       # What read queue length does an incoming req see
system.mem_ctrls1.rdQLenPdf::14                     0                       # What read queue length does an incoming req see
system.mem_ctrls1.rdQLenPdf::15                     0                       # What read queue length does an incoming req see
system.mem_ctrls1.rdQLenPdf::16                     0                       # What read queue length does an incoming req see
system.mem_ctrls1.rdQLenPdf::17                     0                       # What read queue length does an incoming req see
system.mem_ctrls1.rdQLenPdf::18                     0                       # What read queue length does an incoming req see
system.mem_ctrls1.rdQLenPdf::19                     0                       # What read queue length does an incoming req see
system.mem_ctrls1.rdQLenPdf::20                     0                       # What read queue length does an incoming req see
system.mem_ctrls1.rdQLenPdf::21                     0                       # What read queue length does an incoming req see
system.mem_ctrls1.rdQLenPdf::22                     0                       # What read queue length does an incoming req see
system.mem_ctrls1.rdQLenPdf::23                     0                       # What read queue length does an incoming req see
system.mem_ctrls1.rdQLenPdf::24                     0                       # What read queue length does an incoming req see
system.mem_ctrls1.rdQLenPdf::25                     0                       # What read queue length does an incoming req see
system.mem_ctrls1.rdQLenPdf::26                     0                       # What read queue length does an incoming req see
system.mem_ctrls1.rdQLenPdf::27                     0                       # What read queue length does an incoming req see
system.mem_ctrls1.rdQLenPdf::28                     0                       # What read queue length does an incoming req see
system.mem_ctrls1.rdQLenPdf::29                     0                       # What read queue length does an incoming req see
system.mem_ctrls1.rdQLenPdf::30                     0                       # What read queue length does an incoming req see
system.mem_ctrls1.rdQLenPdf::31                     0                       # What read queue length does an incoming req see
system.mem_ctrls1.wrQLenPdf::0                      2                       # What write queue length does an incoming req see
system.mem_ctrls1.wrQLenPdf::1                      2                       # What write queue length does an incoming req see
system.mem_ctrls1.wrQLenPdf::2                      2                       # What write queue length does an incoming req see
system.mem_ctrls1.wrQLenPdf::3                      2                       # What write queue length does an incoming req see
system.mem_ctrls1.wrQLenPdf::4                      2                       # What write queue length does an incoming req see
system.mem_ctrls1.wrQLenPdf::5                      2                       # What write queue length does an incoming req see
system.mem_ctrls1.wrQLenPdf::6                      2                       # What write queue length does an incoming req see
system.mem_ctrls1.wrQLenPdf::7                      2                       # What write queue length does an incoming req see
system.mem_ctrls1.wrQLenPdf::8                      2                       # What write queue length does an incoming req see
system.mem_ctrls1.wrQLenPdf::9                      2                       # What write queue length does an incoming req see
system.mem_ctrls1.wrQLenPdf::10                     2                       # What write queue length does an incoming req see
system.mem_ctrls1.wrQLenPdf::11                     2                       # What write queue length does an incoming req see
system.mem_ctrls1.wrQLenPdf::12                     2                       # What write queue length does an incoming req see
system.mem_ctrls1.wrQLenPdf::13                     2                       # What write queue length does an incoming req see
system.mem_ctrls1.wrQLenPdf::14                     2                       # What write queue length does an incoming req see
system.mem_ctrls1.wrQLenPdf::15                118895                       # What write queue length does an incoming req see
system.mem_ctrls1.wrQLenPdf::16                123183                       # What write queue length does an incoming req see
system.mem_ctrls1.wrQLenPdf::17                146001                       # What write queue length does an incoming req see
system.mem_ctrls1.wrQLenPdf::18                148413                       # What write queue length does an incoming req see
system.mem_ctrls1.wrQLenPdf::19                148836                       # What write queue length does an incoming req see
system.mem_ctrls1.wrQLenPdf::20                148921                       # What write queue length does an incoming req see
system.mem_ctrls1.wrQLenPdf::21                149033                       # What write queue length does an incoming req see
system.mem_ctrls1.wrQLenPdf::22                149821                       # What write queue length does an incoming req see
system.mem_ctrls1.wrQLenPdf::23                150395                       # What write queue length does an incoming req see
system.mem_ctrls1.wrQLenPdf::24                149352                       # What write queue length does an incoming req see
system.mem_ctrls1.wrQLenPdf::25                148912                       # What write queue length does an incoming req see
system.mem_ctrls1.wrQLenPdf::26                148836                       # What write queue length does an incoming req see
system.mem_ctrls1.wrQLenPdf::27                148767                       # What write queue length does an incoming req see
system.mem_ctrls1.wrQLenPdf::28                148782                       # What write queue length does an incoming req see
system.mem_ctrls1.wrQLenPdf::29                148810                       # What write queue length does an incoming req see
system.mem_ctrls1.wrQLenPdf::30                149259                       # What write queue length does an incoming req see
system.mem_ctrls1.wrQLenPdf::31                148268                       # What write queue length does an incoming req see
system.mem_ctrls1.wrQLenPdf::32                148193                       # What write queue length does an incoming req see
system.mem_ctrls1.wrQLenPdf::33                   125                       # What write queue length does an incoming req see
system.mem_ctrls1.wrQLenPdf::34                    35                       # What write queue length does an incoming req see
system.mem_ctrls1.wrQLenPdf::35                    10                       # What write queue length does an incoming req see
system.mem_ctrls1.wrQLenPdf::36                     1                       # What write queue length does an incoming req see
system.mem_ctrls1.wrQLenPdf::37                     0                       # What write queue length does an incoming req see
system.mem_ctrls1.wrQLenPdf::38                     0                       # What write queue length does an incoming req see
system.mem_ctrls1.wrQLenPdf::39                     0                       # What write queue length does an incoming req see
system.mem_ctrls1.wrQLenPdf::40                     0                       # What write queue length does an incoming req see
system.mem_ctrls1.wrQLenPdf::41                     0                       # What write queue length does an incoming req see
system.mem_ctrls1.wrQLenPdf::42                     0                       # What write queue length does an incoming req see
system.mem_ctrls1.wrQLenPdf::43                     0                       # What write queue length does an incoming req see
system.mem_ctrls1.wrQLenPdf::44                     0                       # What write queue length does an incoming req see
system.mem_ctrls1.wrQLenPdf::45                     0                       # What write queue length does an incoming req see
system.mem_ctrls1.wrQLenPdf::46                     0                       # What write queue length does an incoming req see
system.mem_ctrls1.wrQLenPdf::47                     0                       # What write queue length does an incoming req see
system.mem_ctrls1.wrQLenPdf::48                     0                       # What write queue length does an incoming req see
system.mem_ctrls1.wrQLenPdf::49                     0                       # What write queue length does an incoming req see
system.mem_ctrls1.wrQLenPdf::50                     0                       # What write queue length does an incoming req see
system.mem_ctrls1.wrQLenPdf::51                     0                       # What write queue length does an incoming req see
system.mem_ctrls1.wrQLenPdf::52                     0                       # What write queue length does an incoming req see
system.mem_ctrls1.wrQLenPdf::53                     0                       # What write queue length does an incoming req see
system.mem_ctrls1.wrQLenPdf::54                     0                       # What write queue length does an incoming req see
system.mem_ctrls1.wrQLenPdf::55                     0                       # What write queue length does an incoming req see
system.mem_ctrls1.wrQLenPdf::56                     0                       # What write queue length does an incoming req see
system.mem_ctrls1.wrQLenPdf::57                     0                       # What write queue length does an incoming req see
system.mem_ctrls1.wrQLenPdf::58                     0                       # What write queue length does an incoming req see
system.mem_ctrls1.wrQLenPdf::59                     0                       # What write queue length does an incoming req see
system.mem_ctrls1.wrQLenPdf::60                     0                       # What write queue length does an incoming req see
system.mem_ctrls1.wrQLenPdf::61                     0                       # What write queue length does an incoming req see
system.mem_ctrls1.wrQLenPdf::62                     0                       # What write queue length does an incoming req see
system.mem_ctrls1.wrQLenPdf::63                     0                       # What write queue length does an incoming req see
system.mem_ctrls1.bytesPerActivate::samples      4821902                       # Bytes accessed per row activation
system.mem_ctrls1.bytesPerActivate::mean   134.684539                       # Bytes accessed per row activation
system.mem_ctrls1.bytesPerActivate::gmean    96.374870                       # Bytes accessed per row activation
system.mem_ctrls1.bytesPerActivate::stdev   164.642138                       # Bytes accessed per row activation
system.mem_ctrls1.bytesPerActivate::0-127      3203768     66.44%     66.44% # Bytes accessed per row activation
system.mem_ctrls1.bytesPerActivate::128-255      1014039     21.03%     87.47% # Bytes accessed per row activation
system.mem_ctrls1.bytesPerActivate::256-383       247470      5.13%     92.60% # Bytes accessed per row activation
system.mem_ctrls1.bytesPerActivate::384-511       108308      2.25%     94.85% # Bytes accessed per row activation
system.mem_ctrls1.bytesPerActivate::512-639        77287      1.60%     96.45% # Bytes accessed per row activation
system.mem_ctrls1.bytesPerActivate::640-767        56430      1.17%     97.62% # Bytes accessed per row activation
system.mem_ctrls1.bytesPerActivate::768-895        41646      0.86%     98.49% # Bytes accessed per row activation
system.mem_ctrls1.bytesPerActivate::896-1023        27667      0.57%     99.06% # Bytes accessed per row activation
system.mem_ctrls1.bytesPerActivate::1024-1151        45287      0.94%    100.00% # Bytes accessed per row activation
system.mem_ctrls1.bytesPerActivate::total      4821902                       # Bytes accessed per row activation
system.mem_ctrls1.rdPerTurnAround::samples       148156                       # Reads before turning the bus around for writes
system.mem_ctrls1.rdPerTurnAround::mean     50.788122                       # Reads before turning the bus around for writes
system.mem_ctrls1.rdPerTurnAround::stdev   114.483302                       # Reads before turning the bus around for writes
system.mem_ctrls1.rdPerTurnAround::0-1023       147990     99.89%     99.89% # Reads before turning the bus around for writes
system.mem_ctrls1.rdPerTurnAround::1024-2047          124      0.08%     99.97% # Reads before turning the bus around for writes
system.mem_ctrls1.rdPerTurnAround::2048-3071           36      0.02%    100.00% # Reads before turning the bus around for writes
system.mem_ctrls1.rdPerTurnAround::3072-4095            5      0.00%    100.00% # Reads before turning the bus around for writes
system.mem_ctrls1.rdPerTurnAround::30720-31743            1      0.00%    100.00% # Reads before turning the bus around for writes
system.mem_ctrls1.rdPerTurnAround::total       148156                       # Reads before turning the bus around for writes
system.mem_ctrls1.wrPerTurnAround::samples       148156                       # Writes before turning the bus around for reads
system.mem_ctrls1.wrPerTurnAround::mean     17.703353                       # Writes before turning the bus around for reads
system.mem_ctrls1.wrPerTurnAround::gmean    17.682807                       # Writes before turning the bus around for reads
system.mem_ctrls1.wrPerTurnAround::stdev     0.838304                       # Writes before turning the bus around for reads
system.mem_ctrls1.wrPerTurnAround::16           25197     17.01%     17.01% # Writes before turning the bus around for reads
system.mem_ctrls1.wrPerTurnAround::17            3437      2.32%     19.33% # Writes before turning the bus around for reads
system.mem_ctrls1.wrPerTurnAround::18          110808     74.79%     94.12% # Writes before turning the bus around for reads
system.mem_ctrls1.wrPerTurnAround::19            7784      5.25%     99.37% # Writes before turning the bus around for reads
system.mem_ctrls1.wrPerTurnAround::20             750      0.51%     99.88% # Writes before turning the bus around for reads
system.mem_ctrls1.wrPerTurnAround::21             140      0.09%     99.97% # Writes before turning the bus around for reads
system.mem_ctrls1.wrPerTurnAround::22              33      0.02%    100.00% # Writes before turning the bus around for reads
system.mem_ctrls1.wrPerTurnAround::23               5      0.00%    100.00% # Writes before turning the bus around for reads
system.mem_ctrls1.wrPerTurnAround::24               1      0.00%    100.00% # Writes before turning the bus around for reads
system.mem_ctrls1.wrPerTurnAround::32               1      0.00%    100.00% # Writes before turning the bus around for reads
system.mem_ctrls1.wrPerTurnAround::total       148156                       # Writes before turning the bus around for reads
system.mem_ctrls1.totQLat                151362459608                       # Total ticks spent queuing
system.mem_ctrls1.totMemAccLat           292448334608                       # Total ticks spent from burst creation until serviced by the DRAM
system.mem_ctrls1.totBusLat               37622900000                       # Total ticks spent in databus transfers
system.mem_ctrls1.avgQLat                    20115.74                       # Average queueing delay per DRAM burst
system.mem_ctrls1.avgBusLat                   5000.00                       # Average bus latency per DRAM burst
system.mem_ctrls1.avgMemAccLat               38865.74                       # Average memory access latency per DRAM burst
system.mem_ctrls1.avgRdBW                      129.15                       # Average DRAM read bandwidth in MiByte/s
system.mem_ctrls1.avgWrBW                       45.02                       # Average achieved write bandwidth in MiByte/s
system.mem_ctrls1.avgRdBWSys                   129.29                       # Average system read bandwidth in MiByte/s
system.mem_ctrls1.avgWrBWSys                    45.02                       # Average system write bandwidth in MiByte/s
system.mem_ctrls1.peakBW                     12800.00                       # Theoretical peak bandwidth in MiByte/s
system.mem_ctrls1.busUtil                        1.36                       # Data bus utilization in percentage
system.mem_ctrls1.busUtilRead                    1.01                       # Data bus utilization in percentage for reads
system.mem_ctrls1.busUtilWrite                   0.35                       # Data bus utilization in percentage for writes
system.mem_ctrls1.avgRdQLen                      1.02                       # Average read queue length when enqueuing
system.mem_ctrls1.avgWrQLen                     24.57                       # Average write queue length when enqueuing
system.mem_ctrls1.readRowHits                 4692657                       # Number of row buffer hits during reads
system.mem_ctrls1.writeRowHits                 632874                       # Number of row buffer hits during writes
system.mem_ctrls1.readRowHitRate                62.36                       # Row buffer hit rate for reads
system.mem_ctrls1.writeRowHitRate               24.13                       # Row buffer hit rate for writes
system.mem_ctrls1.avgGap                    367169.68                       # Average gap between requests
system.mem_ctrls1.pageHitRate                   52.48                       # Row buffer hit rate, read and write combined
system.mem_ctrls1_0.actEnergy             17264748480                       # Energy for activate commands per rank (pJ)
system.mem_ctrls1_0.preEnergy              9176427645                       # Energy for precharge commands per rank (pJ)
system.mem_ctrls1_0.readEnergy            27155155020                       # Energy for read commands per rank (pJ)
system.mem_ctrls1_0.writeEnergy            6887200140                       # Energy for write commands per rank (pJ)
system.mem_ctrls1_0.refreshEnergy        282336113280.000061                       # Energy for refresh commands per rank (pJ)
system.mem_ctrls1_0.actBackEnergy        171444654720                       # Energy for active background per rank (pJ)
system.mem_ctrls1_0.preBackEnergy          7967423040                       # Energy for precharge background per rank (pJ)
system.mem_ctrls1_0.actPowerDownEnergy   1159330246980                       # Energy for active power-down per rank (pJ)
system.mem_ctrls1_0.prePowerDownEnergy   190507303680                       # Energy for precharge power-down per rank (pJ)
system.mem_ctrls1_0.selfRefreshEnergy     81224906415                       # Energy for self refresh per rank (pJ)
system.mem_ctrls1_0.totalEnergy          1953421967640                       # Total energy per rank (pJ)
system.mem_ctrls1_0.averagePower           523.895570                       # Core power per rank (mW)
system.mem_ctrls1_0.totalIdleTime        3331645891640                       # Total Idle time Per DRAM Rank
system.mem_ctrls1_0.memoryStateTime::IDLE   7788879580                       # Time in different power states
system.mem_ctrls1_0.memoryStateTime::REF 119562302000                       # Time in different power states
system.mem_ctrls1_0.memoryStateTime::SREF 293135884570                       # Time in different power states
system.mem_ctrls1_0.memoryStateTime::PRE_PDN 496110586209                       # Time in different power states
system.mem_ctrls1_0.memoryStateTime::ACT 269649978887                       # Time in different power states
system.mem_ctrls1_0.memoryStateTime::ACT_PDN 2542399934142                       # Time in different power states
system.mem_ctrls1_1.actEnergy             17163667500                       # Energy for activate commands per rank (pJ)
system.mem_ctrls1_1.preEnergy              9122690445                       # Energy for precharge commands per rank (pJ)
system.mem_ctrls1_1.readEnergy            26570346180                       # Energy for read commands per rank (pJ)
system.mem_ctrls1_1.writeEnergy            6804118620                       # Energy for write commands per rank (pJ)
system.mem_ctrls1_1.refreshEnergy        281231605200.000061                       # Energy for refresh commands per rank (pJ)
system.mem_ctrls1_1.actBackEnergy        171147262350                       # Energy for active background per rank (pJ)
system.mem_ctrls1_1.preBackEnergy          8035084800                       # Energy for precharge background per rank (pJ)
system.mem_ctrls1_1.actPowerDownEnergy   1146944028990                       # Energy for active power-down per rank (pJ)
system.mem_ctrls1_1.prePowerDownEnergy   192247127040                       # Energy for precharge power-down per rank (pJ)
system.mem_ctrls1_1.selfRefreshEnergy     87463743120                       # Energy for self refresh per rank (pJ)
system.mem_ctrls1_1.totalEnergy          1946850775515                       # Total energy per rank (pJ)
system.mem_ctrls1_1.averagePower           522.133218                       # Core power per rank (mW)
system.mem_ctrls1_1.totalIdleTime        3332131681578                       # Total Idle time Per DRAM Rank
system.mem_ctrls1_1.memoryStateTime::IDLE   8104253651                       # Time in different power states
system.mem_ctrls1_1.memoryStateTime::REF 119101946000                       # Time in different power states
system.mem_ctrls1_1.memoryStateTime::SREF 316258681569                       # Time in different power states
system.mem_ctrls1_1.memoryStateTime::PRE_PDN 500644770247                       # Time in different power states
system.mem_ctrls1_1.memoryStateTime::ACT 269309562056                       # Time in different power states
system.mem_ctrls1_1.memoryStateTime::ACT_PDN 2515228351865                       # Time in different power states
system.pwrStateResidencyTicks::UNDEFINED 73758620146734                       # Cumulative time (in ticks) in various power states
system.cpu.branchPred.lookups                       1                       # Number of BP lookups
system.cpu.branchPred.condPredicted                 1                       # Number of conditional branches predicted
system.cpu.branchPred.condIncorrect                 0                       # Number of conditional branches incorrect
system.cpu.branchPred.BTBLookups                    0                       # Number of BTB lookups
system.cpu.branchPred.BTBHits                       0                       # Number of BTB hits
system.cpu.branchPred.BTBCorrect                    0                       # Number of correct BTB predictions (this stat may not work properly.
system.cpu.branchPred.BTBHitPct                   nan                       # BTB Hit Percentage
system.cpu.branchPred.usedRAS                       0                       # Number of times the RAS was used to get a target.
system.cpu.branchPred.RASInCorrect                  0                       # Number of incorrect RAS predictions.
system.cpu.branchPred.indirectLookups               0                       # Number of indirect predictor lookups.
system.cpu.branchPred.indirectHits                  0                       # Number of indirect target hits.
system.cpu.branchPred.indirectMisses                0                       # Number of indirect misses.
system.cpu.branchPredindirectMispredicted            0                       # Number of mispredicted indirect branches.
system.cpu_voltage_domain.voltage                   1                       # Voltage in Volts
system.cpu_clk_domain.clock                       333                       # Clock period in ticks
system.cpu.dtb.fetch_hits                           0                       # ITB hits
system.cpu.dtb.fetch_misses                         0                       # ITB misses
system.cpu.dtb.fetch_acv                            0                       # ITB acv
system.cpu.dtb.fetch_accesses                       0                       # ITB accesses
system.cpu.dtb.read_hits                            2                       # DTB read hits
system.cpu.dtb.read_misses                          0                       # DTB read misses
system.cpu.dtb.read_acv                             0                       # DTB read access violations
system.cpu.dtb.read_accesses                        2                       # DTB read accesses
system.cpu.dtb.write_hits                           0                       # DTB write hits
system.cpu.dtb.write_misses                         0                       # DTB write misses
system.cpu.dtb.write_acv                            0                       # DTB write access violations
system.cpu.dtb.write_accesses                       0                       # DTB write accesses
system.cpu.dtb.data_hits                            2                       # DTB hits
system.cpu.dtb.data_misses                          0                       # DTB misses
system.cpu.dtb.data_acv                             0                       # DTB access violations
system.cpu.dtb.data_accesses                        2                       # DTB accesses
system.cpu.itb.fetch_hits                           3                       # ITB hits
system.cpu.itb.fetch_misses                         0                       # ITB misses
system.cpu.itb.fetch_acv                            0                       # ITB acv
system.cpu.itb.fetch_accesses                       3                       # ITB accesses
system.cpu.itb.read_hits                            0                       # DTB read hits
system.cpu.itb.read_misses                          0                       # DTB read misses
system.cpu.itb.read_acv                             0                       # DTB read access violations
system.cpu.itb.read_accesses                        0                       # DTB read accesses
system.cpu.itb.write_hits                           0                       # DTB write hits
system.cpu.itb.write_misses                         0                       # DTB write misses
system.cpu.itb.write_acv                            0                       # DTB write access violations
system.cpu.itb.write_accesses                       0                       # DTB write accesses
system.cpu.itb.data_hits                            0                       # DTB hits
system.cpu.itb.data_misses                          0                       # DTB misses
system.cpu.itb.data_acv                             0                       # DTB access violations
system.cpu.itb.data_accesses                        0                       # DTB accesses
system.cpu.workload.num_syscalls                    5                       # Number of system calls
system.cpu.pwrStateResidencyTicks::ON    3728647565388                       # Cumulative time (in ticks) in various power states
system.cpu.numCycles                              492                       # number of cpu cycles simulated
system.cpu.numWorkItemsStarted                      0                       # number of work items this cpu started
system.cpu.numWorkItemsCompleted                    0                       # number of work items this cpu completed
system.cpu.fetch.icacheStallCycles                 18                       # Number of cycles fetch is stalled on an Icache miss
system.cpu.fetch.Insts                             10                       # Number of instructions fetch has processed
system.cpu.fetch.Branches                           1                       # Number of branches that fetch encountered
system.cpu.fetch.Cycles                             2                       # Number of cycles fetch has run and was not squashing or blocked
system.cpu.fetch.SquashCycles                       3                       # Number of cycles fetch has spent squashing
system.cpu.fetch.PendingDrainCycles                 3                       # Number of cycles fetch has spent waiting on pipes to drain
system.cpu.fetch.CacheLines                         3                       # Number of cache lines fetched
system.cpu.fetch.IcacheSquashes                     2                       # Number of outstanding Icache misses that were squashed
system.cpu.fetch.rateDist::samples                 24                       # Number of instructions fetched each cycle (Total)
system.cpu.fetch.rateDist::mean              0.416667                       # Number of instructions fetched each cycle (Total)
system.cpu.fetch.rateDist::stdev             1.665942                       # Number of instructions fetched each cycle (Total)
system.cpu.fetch.rateDist::underflows               0      0.00%      0.00% # Number of instructions fetched each cycle (Total)
[...]
system.switch_cpus_1.iq.int_inst_queue_wakeup_accesses    196876013                       # Number of integer instruction queue wakeup accesses
system.switch_cpus_1.iq.fp_inst_queue_reads    132867203                       # Number of floating instruction queue reads
system.switch_cpus_1.iq.fp_inst_queue_writes     84959429                       # Number of floating instruction queue writes
system.switch_cpus_1.iq.fp_inst_queue_wakeup_accesses     59463378                       # Number of floating instruction queue wakeup accesses
system.switch_cpus_1.iq.int_alu_accesses    212874956                       # Number of integer alu accesses
system.switch_cpus_1.iq.fp_alu_accesses      67958359                       # Number of floating point alu accesses
system.switch_cpus_1.iew.lsq.thread0.forwLoads      2278598                       # Number of loads that had data forwarded from stores
system.switch_cpus_1.iew.lsq.thread0.invAddrLoads            0                       # Number of loads ignored due to an invalid address
system.switch_cpus_1.iew.lsq.thread0.squashedLoads     21584785                       # Number of loads squashed
system.switch_cpus_1.iew.lsq.thread0.ignoredResponses        14824                       # Number of memory responses ignored because the instruction is squashed
system.switch_cpus_1.iew.lsq.thread0.memOrderViolation         8666                       # Number of memory ordering violations
system.switch_cpus_1.iew.lsq.thread0.squashedStores      7150411                       # Number of stores squashed
system.switch_cpus_1.iew.lsq.thread0.invAddrSwpfs            0                       # Number of software prefetches ignored due to an invalid address
system.switch_cpus_1.iew.lsq.thread0.blockedLoads            0                       # Number of blocked loads due to partial load-store forwarding
system.switch_cpus_1.iew.lsq.thread0.rescheduledLoads         6021                       # Number of loads that were rescheduled
system.switch_cpus_1.iew.lsq.thread0.cacheBlocked     12706397                       # Number of times an access to memory failed due to the cache being blocked
system.switch_cpus_1.iew.iewIdleCycles              0                       # Number of cycles IEW is idle
system.switch_cpus_1.iew.iewSquashCycles      1489162                       # Number of cycles IEW is squashing
system.switch_cpus_1.iew.iewBlockCycles     191258528                       # Number of cycles IEW is blocking
system.switch_cpus_1.iew.iewUnblockCycles     86394801                       # Number of cycles IEW is unblocking
system.switch_cpus_1.iew.iewDispatchedInsts    292609810                       # Number of instructions dispatched to IQ
system.switch_cpus_1.iew.iewDispSquashedInsts       154688                       # Number of squashed instructions skipped by dispatch
system.switch_cpus_1.iew.iewDispLoadInsts     61256504                       # Number of dispatched load instructions
system.switch_cpus_1.iew.iewDispStoreInsts     19141450                       # Number of dispatched store instructions
system.switch_cpus_1.iew.iewDispNonSpecInsts          201                       # Number of dispatched non-speculative instructions
system.switch_cpus_1.iew.iewIQFullEvents      1017890                       # Number of times the IQ has become full, causing a stall
system.switch_cpus_1.iew.iewLSQFullEvents     84830180                       # Number of times the LSQ has become full, causing a stall
system.switch_cpus_1.iew.memOrderViolationEvents         8666                       # Number of memory order violations
system.switch_cpus_1.iew.predictedTakenIncorrect       828766                       # Number of branches that were predicted taken incorrectly
system.switch_cpus_1.iew.predictedNotTakenIncorrect       566149                       # Number of branches that were predicted not taken incorrectly
system.switch_cpus_1.iew.branchMispredicts      1394915                       # Number of branch mispredicts detected at execute
system.switch_cpus_1.iew.iewExecutedInsts    272310627                       # Number of executed instructions
system.switch_cpus_1.iew.iewExecLoadInsts     68242275                       # Number of load instructions executed
system.switch_cpus_1.iew.iewExecSquashedInsts      1753900                       # Number of squashed instructions skipped in execute
system.switch_cpus_1.iew.exec_swp                   0                       # number of swp insts executed
system.switch_cpus_1.iew.exec_nop             1879621                       # number of nop insts executed
system.switch_cpus_1.iew.exec_refs           83946109                       # number of memory reference insts executed
system.switch_cpus_1.iew.exec_branches       34755220                       # Number of branches executed
system.switch_cpus_1.iew.exec_stores         15703834                       # Number of stores executed
system.switch_cpus_1.iew.exec_rate           0.352410                       # Inst execution rate
system.switch_cpus_1.iew.wb_sent            258312005                       # cumulative count of insts sent to commit
system.switch_cpus_1.iew.wb_count           256339391                       # cumulative count of insts written-back
system.switch_cpus_1.iew.wb_producers       153932435                       # num instructions producing a value
system.switch_cpus_1.iew.wb_consumers       189815230                       # num instructions consuming a value
system.switch_cpus_1.iew.wb_rate             0.331741                       # insts written-back per cycle
system.switch_cpus_1.iew.wb_fanout           0.810959                       # average fanout of values written-back
system.switch_cpus_1.commit.commitSquashedInsts     87310289                       # The number of squashed insts skipped by commit
system.switch_cpus_1.commit.commitNonSpecStalls          204                       # The number of times commit has been forced to stall to communicate backwards
system.switch_cpus_1.commit.branchMispredicts      1116235                       # The number of times a branch was mispredicted
system.switch_cpus_1.commit.committed_per_cycle::samples    760222207                       # Number of insts commited each cycle
system.switch_cpus_1.commit.committed_per_cycle::mean     0.264684                       # Number of insts commited each cycle
system.switch_cpus_1.commit.committed_per_cycle::stdev     1.334531                       # Number of insts commited each cycle
system.switch_cpus_1.commit.committed_per_cycle::underflows            0      0.00%      0.00% # Number of insts commited each cycle
system.switch_cpus_1.commit.committed_per_cycle::0    721297961     94.88%     94.88% # Number of insts commited each cycle
system.switch_cpus_1.commit.committed_per_cycle::1      9132156      1.20%     96.08% # Number of insts commited each cycle
system.switch_cpus_1.commit.committed_per_cycle::2      4016562      0.53%     96.61% # Number of insts commited each cycle
system.switch_cpus_1.commit.committed_per_cycle::3      1848874      0.24%     96.85% # Number of insts commited each cycle
system.switch_cpus_1.commit.committed_per_cycle::4      1264004      0.17%     97.02% # Number of insts commited each cycle
system.switch_cpus_1.commit.committed_per_cycle::5      1837002      0.24%     97.26% # Number of insts commited each cycle
system.switch_cpus_1.commit.committed_per_cycle::6       730590      0.10%     97.36% # Number of insts commited each cycle
system.switch_cpus_1.commit.committed_per_cycle::7       878581      0.12%     97.47% # Number of insts commited each cycle
system.switch_cpus_1.commit.committed_per_cycle::8     19216477      2.53%    100.00% # Number of insts commited each cycle
system.switch_cpus_1.commit.committed_per_cycle::overflows            0      0.00%    100.00% # Number of insts commited each cycle
system.switch_cpus_1.commit.committed_per_cycle::min_value            0                       # Number of insts commited each cycle
system.switch_cpus_1.commit.committed_per_cycle::max_value            8                       # Number of insts commited each cycle
system.switch_cpus_1.commit.committed_per_cycle::total    760222207                       # Number of insts commited each cycle
system.switch_cpus_1.commit.committedInsts    201218351                       # Number of instructions committed
system.switch_cpus_1.commit.committedOps    201218351                       # Number of ops (including micro ops) committed
system.switch_cpus_1.commit.swp_count               0                       # Number of s/w prefetches committed
system.switch_cpus_1.commit.refs             51662751                       # Number of memory references committed
system.switch_cpus_1.commit.loads            39671715                       # Number of loads committed
system.switch_cpus_1.commit.membars               102                       # Number of memory barriers committed
system.switch_cpus_1.commit.branches         28384894                       # Number of branches committed
system.switch_cpus_1.commit.fp_insts         51627815                       # Number of committed floating point instructions.
system.switch_cpus_1.commit.int_insts       168624395                       # Number of committed integer instructions.
system.switch_cpus_1.commit.function_calls       460018                       # Number of function calls committed.
system.switch_cpus_1.commit.op_class_0::No_OpClass      1218344      0.61%      0.61% # Class of committed instruction
system.switch_cpus_1.commit.op_class_0::IntAlu    117264314     58.28%     58.88% # Class of committed instruction
system.switch_cpus_1.commit.op_class_0::IntMult       166526      0.08%     58.97% # Class of committed instruction
system.switch_cpus_1.commit.op_class_0::IntDiv            0      0.00%     58.97% # Class of committed instruction
system.switch_cpus_1.commit.op_class_0::FloatAdd     18908760      9.40%     68.36% # Class of committed instruction
system.switch_cpus_1.commit.op_class_0::FloatCmp     10580725      5.26%     73.62% # Class of committed instruction
system.switch_cpus_1.commit.op_class_0::FloatCvt         1376      0.00%     73.62% # Class of committed instruction
system.switch_cpus_1.commit.op_class_0::FloatMult       880508      0.44%     74.06% # Class of committed instruction
system.switch_cpus_1.commit.op_class_0::FloatMultAcc            0      0.00%     74.06% # Class of committed instruction
system.switch_cpus_1.commit.op_class_0::FloatDiv       534945      0.27%     74.32% # Class of committed instruction
system.switch_cpus_1.commit.op_class_0::FloatMisc            0      0.00%     74.32% # Class of committed instruction
system.switch_cpus_1.commit.op_class_0::FloatSqrt            0      0.00%     74.32% # Class of committed instruction
system.switch_cpus_1.commit.op_class_0::SimdAdd            0      0.00%     74.32% # Class of committed instruction
system.switch_cpus_1.commit.op_class_0::SimdAddAcc            0      0.00%     74.32% # Class of committed instruction
system.switch_cpus_1.commit.op_class_0::SimdAlu            0      0.00%     74.32% # Class of committed instruction
system.switch_cpus_1.commit.op_class_0::SimdCmp            0      0.00%     74.32% # Class of committed instruction
system.switch_cpus_1.commit.op_class_0::SimdCvt            0      0.00%     74.32% # Class of committed instruction
system.switch_cpus_1.commit.op_class_0::SimdMisc            0      0.00%     74.32% # Class of committed instruction
system.switch_cpus_1.commit.op_class_0::SimdMult            0      0.00%     74.32% # Class of committed instruction
system.switch_cpus_1.commit.op_class_0::SimdMultAcc            0      0.00%     74.32% # Class of committed instruction
system.switch_cpus_1.commit.op_class_0::SimdShift            0      0.00%     74.32% # Class of committed instruction
system.switch_cpus_1.commit.op_class_0::SimdShiftAcc            0      0.00%     74.32% # Class of committed instruction
system.switch_cpus_1.commit.op_class_0::SimdSqrt            0      0.00%     74.32% # Class of committed instruction
system.switch_cpus_1.commit.op_class_0::SimdFloatAdd            0      0.00%     74.32% # Class of committed instruction
system.switch_cpus_1.commit.op_class_0::SimdFloatAlu            0      0.00%     74.32% # Class of committed instruction
system.switch_cpus_1.commit.op_class_0::SimdFloatCmp            0      0.00%     74.32% # Class of committed instruction
system.switch_cpus_1.commit.op_class_0::SimdFloatCvt            0      0.00%     74.32% # Class of committed instruction
system.switch_cpus_1.commit.op_class_0::SimdFloatDiv            0      0.00%     74.32% # Class of committed instruction
system.switch_cpus_1.commit.op_class_0::SimdFloatMisc            0      0.00%     74.32% # Class of committed instruction
system.switch_cpus_1.commit.op_class_0::SimdFloatMult            0      0.00%     74.32% # Class of committed instruction
system.switch_cpus_1.commit.op_class_0::SimdFloatMultAcc            0      0.00%     74.32% # Class of committed instruction
system.switch_cpus_1.commit.op_class_0::SimdFloatSqrt            0      0.00%     74.32% # Class of committed instruction
system.switch_cpus_1.commit.op_class_0::MemRead     20146503     10.01%     84.34% # Class of committed instruction
system.switch_cpus_1.commit.op_class_0::MemWrite     10794849      5.36%     89.70% # Class of committed instruction
system.switch_cpus_1.commit.op_class_0::FloatMemRead     19525314      9.70%     99.41% # Class of committed instruction
system.switch_cpus_1.commit.op_class_0::FloatMemWrite      1196187      0.59%    100.00% # Class of committed instruction
system.switch_cpus_1.commit.op_class_0::IprAccess            0      0.00%    100.00% # Class of committed instruction
system.switch_cpus_1.commit.op_class_0::InstPrefetch            0      0.00%    100.00% # Class of committed instruction
system.switch_cpus_1.commit.op_class_0::total    201218351                       # Class of committed instruction
system.switch_cpus_1.commit.bw_lim_events     19216477                       # number cycles where commit BW limit reached
system.switch_cpus_1.rob.rob_reads         1024769311                       # The number of ROB reads
system.switch_cpus_1.rob.rob_writes         589144972                       # The number of ROB writes
system.switch_cpus_1.timesIdled                  2294                       # Number of times that the entire CPU went into an idle state and unscheduled itself
system.switch_cpus_1.idleCycles                421571                       # Total number of cycles that the CPU has spent unscheduled due to idling
system.switch_cpus_1.committedInsts         200000007                       # Number of Instructions Simulated
system.switch_cpus_1.committedOps           200000007                       # Number of Ops (including micro ops) Simulated
system.switch_cpus_1.cpi                     3.863550                       # CPI: Cycles Per Instruction
system.switch_cpus_1.cpi_total               3.863550                       # CPI: Total CPI of All Threads
system.switch_cpus_1.ipc                     0.258829                       # IPC: Instructions Per Cycle
system.switch_cpus_1.ipc_total               0.258829                       # IPC: Total IPC of All Threads
system.switch_cpus_1.int_regfile_reads      354775381                       # number of integer regfile reads
system.switch_cpus_1.int_regfile_writes     160690882                       # number of integer regfile writes
system.switch_cpus_1.fp_regfile_reads        59628662                       # number of floating regfile reads
system.switch_cpus_1.fp_regfile_writes       46621694                       # number of floating regfile writes
system.switch_cpus_1.misc_regfile_reads           243                       # number of misc regfile reads
system.switch_cpus_1.misc_regfile_writes          204                       # number of misc regfile writes
system.tol3bus.snoop_filter.tot_requests     51976731                       # Total number of requests made to the snoop filter.
system.tol3bus.snoop_filter.hit_single_requests     25986175                       # Number of requests hitting in the snoop filter with a single holder of the requested data.
system.tol3bus.snoop_filter.hit_multi_requests            0                       # Number of requests hitting in the snoop filter with multiple (>1) holders of the requested data.
system.tol3bus.snoop_filter.tot_snoops         443419                       # Total number of snoops made to the snoop filter.
system.tol3bus.snoop_filter.hit_single_snoops       443419                       # Number of snoops hitting in the snoop filter with a single holder of the requested data.
system.tol3bus.snoop_filter.hit_multi_snoops            0                       # Number of snoops hitting in the snoop filter with multiple (>1) holders of the requested data.
system.tol3bus.pwrStateResidencyTicks::UNDEFINED 73758620146734                       # Cumulative time (in ticks) in various power states
system.tol3bus.trans_dist::ReadResp          19570670                       # Transaction distribution
system.tol3bus.trans_dist::WritebackDirty     17853534                       # Transaction distribution
system.tol3bus.trans_dist::CleanEvict        23157407                       # Transaction distribution
system.tol3bus.trans_dist::UpgradeReq              29                       # Transaction distribution
system.tol3bus.trans_dist::UpgradeResp             29                       # Transaction distribution
system.tol3bus.trans_dist::ReadExReq          6419886                       # Transaction distribution
system.tol3bus.trans_dist::ReadExResp         6419886                       # Transaction distribution
system.tol3bus.trans_dist::ReadSharedReq     19570670                       # Transaction distribution
system.tol3bus.pkt_count_system.cpu.l2.mem_side::system.l3.cpu_side     77967316                       # Packet count per connected master and slave (bytes)
system.tol3bus.pkt_size_system.cpu.l2.mem_side::system.l3.cpu_side   2470523264                       # Cumulative packet size per connected master and slave (bytes)
system.tol3bus.snoops                        15024795                       # Total snoops (count)
system.tol3bus.snoopTraffic                 335498496                       # Total snoop traffic (bytes)
system.tol3bus.snoop_fanout::samples         41015380                       # Request fanout histogram
system.tol3bus.snoop_fanout::mean            0.010811                       # Request fanout histogram
system.tol3bus.snoop_fanout::stdev           0.103413                       # Request fanout histogram
system.tol3bus.snoop_fanout::underflows             0      0.00%      0.00% # Request fanout histogram
system.tol3bus.snoop_fanout::0               40571961     98.92%     98.92% # Request fanout histogram
system.tol3bus.snoop_fanout::1                 443419      1.08%    100.00% # Request fanout histogram
system.tol3bus.snoop_fanout::overflows              0      0.00%    100.00% # Request fanout histogram
system.tol3bus.snoop_fanout::min_value              0                       # Request fanout histogram
system.tol3bus.snoop_fanout::max_value              1                       # Request fanout histogram
system.tol3bus.snoop_fanout::total           41015380                       # Request fanout histogram
system.tol3bus.reqLayer0.occupancy        21507837633                       # Layer occupancy (ticks)
system.tol3bus.reqLayer0.utilization              0.6                       # Layer utilization (%)
system.tol3bus.respLayer0.occupancy       17309719953                       # Layer occupancy (ticks)
system.tol3bus.respLayer0.utilization             0.5                       # Layer utilization (%)

---------- End Simulation Statistics   ----------
