
---------- Begin Simulation Statistics ----------
sim_seconds                                  1.843129                       # Number of seconds simulated
sim_ticks                                1843128889137                       # Number of ticks simulated
final_tick                               75113282689839                       # Number of ticks from beginning of simulation (restored from checkpoints and never reset)
sim_freq                                 1000000000000                       # Frequency of simulated ticks
host_inst_rate                                 347604                       # Simulator instruction rate (inst/s)
host_op_rate                                   347604                       # Simulator op (including micro ops) rate (op/s)
host_tick_rate                              457627931                       # Simulator tick rate (ticks/s)
host_mem_usage                                2403920                       # Number of bytes of host memory used
host_seconds                                  4027.57                       # Real time elapsed on the host
sim_insts                                  1400000006                       # Number of instructions simulated
sim_ops                                    1400000006                       # Number of ops (including micro ops) simulated
system.voltage_domain.voltage                       1                       # Voltage in Volts
system.clk_domain.clock                          1000                       # Clock period in ticks
system.mem_ctrls0.pwrStateResidencyTicks::UNDEFINED 75113282689839                       # Cumulative time (in ticks) in various power states
system.mem_ctrls0.bytes_read::cpu.inst            128                       # Number of bytes read from this memory
system.mem_ctrls0.bytes_read::cpu.data            192                       # Number of bytes read from this memory
system.mem_ctrls0.bytes_read::switch_cpus.inst        43968                       # Number of bytes read from this memory
system.mem_ctrls0.bytes_read::switch_cpus.data    232896128                       # Number of bytes read from this memory
system.mem_ctrls0.bytes_read::switch_cpus_1.inst         5632                       # Number of bytes read from this memory
system.mem_ctrls0.bytes_read::switch_cpus_1.data     64623040                       # Number of bytes read from this memory
system.mem_ctrls0.bytes_read::total         297569088                       # Number of bytes read from this memory
system.mem_ctrls0.bytes_inst_read::cpu.inst          128                       # Number of instructions bytes read from this memory
system.mem_ctrls0.bytes_inst_read::switch_cpus.inst        43968                       # Number of instructions bytes read from this memory
system.mem_ctrls0.bytes_inst_read::switch_cpus_1.inst         5632                       # Number of instructions bytes read from this memory
system.mem_ctrls0.bytes_inst_read::total        49728                       # Number of instructions bytes read from this memory
system.mem_ctrls0.bytes_written::writebacks     93138432                       # Number of bytes written to this memory
system.mem_ctrls0.bytes_written::total       93138432                       # Number of bytes written to this memory
system.mem_ctrls0.num_reads::cpu.inst               2                       # Number of read requests responded to by this memory
system.mem_ctrls0.num_reads::cpu.data               3                       # Number of read requests responded to by this memory
system.mem_ctrls0.num_reads::switch_cpus.inst          687                       # Number of read requests responded to by this memory
system.mem_ctrls0.num_reads::switch_cpus.data      3639002                       # Number of read requests responded to by this memory
system.mem_ctrls0.num_reads::switch_cpus_1.inst           88                       # Number of read requests responded to by this memory
system.mem_ctrls0.num_reads::switch_cpus_1.data      1009735                       # Number of read requests responded to by this memory
system.mem_ctrls0.num_reads::total            4649517                       # Number of read requests responded to by this memory
system.mem_ctrls0.num_writes::writebacks      1455288                       # Number of write requests responded to by this memory
system.mem_ctrls0.num_writes::total           1455288                       # Number of write requests responded to by this memory
system.mem_ctrls0.bw_read::cpu.inst                69                       # Total read bandwidth from this memory (bytes/s)
system.mem_ctrls0.bw_read::cpu.data               104                       # Total read bandwidth from this memory (bytes/s)
system.mem_ctrls0.bw_read::switch_cpus.inst        23855                       # Total read bandwidth from this memory (bytes/s)
system.mem_ctrls0.bw_read::switch_cpus.data    126359111                       # Total read bandwidth from this memory (bytes/s)
system.mem_ctrls0.bw_read::switch_cpus_1.inst         3056                       # Total read bandwidth from this memory (bytes/s)
system.mem_ctrls0.bw_read::switch_cpus_1.data     35061596                       # Total read bandwidth from this memory (bytes/s)
system.mem_ctrls0.bw_read::total            161447791                       # Total read bandwidth from this memory (bytes/s)
system.mem_ctrls0.bw_inst_read::cpu.inst           69                       # Instruction read bandwidth from this memory (bytes/s)
system.mem_ctrls0.bw_inst_read::switch_cpus.inst        23855                       # Instruction read bandwidth from this memory (bytes/s)
system.mem_ctrls0.bw_inst_read::switch_cpus_1.inst         3056                       # Instruction read bandwidth from this memory (bytes/s)
system.mem_ctrls0.bw_inst_read::total           26980                       # Instruction read bandwidth from this memory (bytes/s)
system.mem_ctrls0.bw_write::writebacks       50532783                       # Write bandwidth from this memory (bytes/s)
system.mem_ctrls0.bw_write::total            50532783                       # Write bandwidth from this memory (bytes/s)
system.mem_ctrls0.bw_total::writebacks       50532783                       # Total bandwidth to/from this memory (bytes/s)
system.mem_ctrls0.bw_total::cpu.inst               69                       # Total bandwidth to/from this memory (bytes/s)
system.mem_ctrls0.bw_total::cpu.data              104                       # Total bandwidth to/from this memory (bytes/s)
system.mem_ctrls0.bw_total::switch_cpus.inst        23855                       # Total bandwidth to/from this memory (bytes/s)
system.mem_ctrls0.bw_total::switch_cpus.data    126359111                       # Total bandwidth to/from this memory (bytes/s)
system.mem_ctrls0.bw_total::switch_cpus_1.inst         3056                       # Total bandwidth to/from this memory (bytes/s)
system.mem_ctrls0.bw_total::switch_cpus_1.data     35061596                       # Total bandwidth to/from this memory (bytes/s)
system.mem_ctrls0.bw_total::total           211980574                       # Total bandwidth to/from this memory (bytes/s)
system.mem_ctrls0.readReqs                    4649517                       # Number of read requests accepted
system.mem_ctrls0.writeReqs                   1455288                       # Number of write requests accepted
system.mem_ctrls0.readBursts                  4649517                       # Number of DRAM read bursts, including those serviced by the write queue
system.mem_ctrls0.writeBursts                 1455288                       # Number of DRAM write bursts, including those merged in the write queue
system.mem_ctrls0.bytesReadDRAM             297531904                       # Total number of bytes read from DRAM
system.mem_ctrls0.bytesReadWrQ                  37184                       # Total number of bytes read from write queue
system.mem_ctrls0.bytesWritten               93137408                       # Total number of bytes written to DRAM
system.mem_ctrls0.bytesReadSys              297569088                       # Total read bytes from the system interface side
system.mem_ctrls0.bytesWrittenSys            93138432                       # Total written bytes from the system interface side
system.mem_ctrls0.servicedByWrQ                   581                       # Number of DRAM read bursts serviced by the write queue
system.mem_ctrls0.mergedWrBursts                    0                       # Number of DRAM write bursts merged with an existing one
system.mem_ctrls0.neitherReadNorWriteReqs            0                       # Number of requests that are neither read nor write
system.mem_ctrls0.perBankRdBursts::0           297076                       # Per bank write bursts
system.mem_ctrls0.perBankRdBursts::1           293142                       # Per bank write bursts
system.mem_ctrls0.perBankRdBursts::2           289302                       # Per bank write bursts
system.mem_ctrls0.perBankRdBursts::3           289982                       # Per bank write bursts
system.mem_ctrls0.perBankRdBursts::4           289595                       # Per bank write bursts
system.mem_ctrls0.perBankRdBursts::5           292258                       # Per bank write bursts
system.mem_ctrls0.perBankRdBursts::6           292603                       # Per bank write bursts
system.mem_ctrls0.perBankRdBursts::7           293431                       # Per bank write bursts
system.mem_ctrls0.perBankRdBursts::8           295042                       # Per bank write bursts
system.mem_ctrls0.perBankRdBursts::9           291608                       # Per bank write bursts
system.mem_ctrls0.perBankRdBursts::10          286161                       # Per bank write bursts
system.mem_ctrls0.perBankRdBursts::11          283055                       # Per bank write bursts
system.mem_ctrls0.perBankRdBursts::12          282563                       # Per bank write bursts
system.mem_ctrls0.perBankRdBursts::13          287205                       # Per bank write bursts
system.mem_ctrls0.perBankRdBursts::14          292680                       # Per bank write bursts
system.mem_ctrls0.perBankRdBursts::15          293233                       # Per bank write bursts
system.mem_ctrls0.perBankWrBursts::0            93630                       # Per bank write bursts
system.mem_ctrls0.perBankWrBursts::1            92267                       # Per bank write bursts
system.mem_ctrls0.perBankWrBursts::2            91598                       # Per bank write bursts
system.mem_ctrls0.perBankWrBursts::3            92539                       # Per bank write bursts
system.mem_ctrls0.perBankWrBursts::4            92960                       # Per bank write bursts
system.mem_ctrls0.perBankWrBursts::5            92921                       # Per bank write bursts
system.mem_ctrls0.perBankWrBursts::6            90403                       # Per bank write bursts
system.mem_ctrls0.perBankWrBursts::7            89801                       # Per bank write bursts
system.mem_ctrls0.perBankWrBursts::8            90114                       # Per bank write bursts
system.mem_ctrls0.perBankWrBursts::9            90486                       # Per bank write bursts
system.mem_ctrls0.perBankWrBursts::10           90002                       # Per bank write bursts
system.mem_ctrls0.perBankWrBursts::11           88701                       # Per bank write bursts
system.mem_ctrls0.perBankWrBursts::12           87825                       # Per bank write bursts
system.mem_ctrls0.perBankWrBursts::13           88723                       # Per bank write bursts
system.mem_ctrls0.perBankWrBursts::14           91372                       # Per bank write bursts
system.mem_ctrls0.perBankWrBursts::15           91930                       # Per bank write bursts
system.mem_ctrls0.numRdRetry                        0                       # Number of times read queue was full causing retry
system.mem_ctrls0.numWrRetry                        0                       # Number of times write queue was full causing retry
system.mem_ctrls0.totGap                 1843127939088                       # Total gap between requests
system.mem_ctrls0.readPktSize::0                    0                       # Read request sizes (log2)
system.mem_ctrls0.readPktSize::1                    0                       # Read request sizes (log2)
system.mem_ctrls0.readPktSize::2                    0                       # Read request sizes (log2)
system.mem_ctrls0.readPktSize::3                    0                       # Read request sizes (log2)
system.mem_ctrls0.readPktSize::4                    0                       # Read request sizes (log2)
system.mem_ctrls0.readPktSize::5                    0                       # Read request sizes (log2)
system.mem_ctrls0.readPktSize::6              4649517                       # Read request sizes (log2)
system.mem_ctrls0.writePktSize::0                   0                       # Write request sizes (log2)
system.mem_ctrls0.writePktSize::1                   0                       # Write request sizes (log2)
system.mem_ctrls0.writePktSize::2                   0                       # Write request sizes (log2)
system.mem_ctrls0.writePktSize::3                   0                       # Write request sizes (log2)
system.mem_ctrls0.writePktSize::4                   0                       # Write request sizes (log2)
system.mem_ctrls0.writePktSize::5                   0                       # Write request sizes (log2)
system.mem_ctrls0.writePktSize::6             1455288                       # Write request sizes (log2)
system.mem_ctrls0.rdQLenPdf::0                4369021                       # What read queue length does an incoming req see
system.mem_ctrls0.rdQLenPdf::1                 225155                       # What read queue length does an incoming req see
system.mem_ctrls0.rdQLenPdf::2                  50728                       # What read queue length does an incoming req see
system.mem_ctrls0.rdQLenPdf::3                   4032                       # What read queue length does an incoming req see
system.mem_ctrls0.rdQLenPdf::4                      0                       # What read queue length does an incoming req see
system.mem_ctrls0.rdQLenPdf::5                      0                       # What read queue length does an incoming req see
system.mem_ctrls0.rdQLenPdf::6                      0                       # What read queue length does an incoming req see
system.mem_ctrls0.rdQLenPdf::7                      0                       # What read queue length does an incoming req see
system.mem_ctrls0.rdQLenPdf::8                      0                       # What read queue length does an incoming req see
system.mem_ctrls0.rdQLenPdf::9                      0                       # What read queue length does an incoming req see
system.mem_ctrls0.rdQLenPdf::10                     0                       # What read queue length does an incoming req see
system.mem_ctrls0.rdQLenPdf::11                     0                       # What read queue length does an incoming req see
system.mem_ctrls0.rdQLenPdf::12                     0                       # What read queue length does an incoming req see
system.mem_ctrls0.rdQLenPdf::13                     0                       # What read queue length does an incoming req see
system.mem_ctrls0.rdQLenPdf::14                     0                       # What read queue length does an incoming req see
system.mem_ctrls0.rdQLenPdf::15                     0                       # What read queue length does an incoming req see
system.mem_ctrls0.rdQLenPdf::16                     0                       # What read queue length does an incoming req see
system.mem_ctrls0.rdQLenPdf::17                     0                       # What read queue length does an incoming req see
system.mem_ctrls0.rdQLenPdf::18                     0                       # What read queue length does an incoming req see
system.mem_ctrls0.rdQLenPdf::19                     0                       # What read queue length does an incoming req see
system.mem_ctrls0.rdQLenPdf::20                     0                       # What read queue length does an incoming req see
system.mem_ctrls0.rdQLenPdf::21                     0                       # What read queue length does an incoming req see
system.mem_ctrls0.rdQLenPdf::22                     0                       # What read queue length does an incoming req see
system.mem_ctrls0.rdQLenPdf::23                     0                       # What read queue length does an incoming req see
system.mem_ctrls0.rdQLenPdf::24                     0                       # What read queue length does an incoming req see
system.mem_ctrls0.rdQLenPdf::25                     0                       # What read queue length does an incoming req see
system.mem_ctrls0.rdQLenPdf::26                     0                       # What read queue length does an incoming req see
system.mem_ctrls0.rdQLenPdf::27                     0                       # What read queue length does an incoming req see
system.mem_ctrls0.rdQLenPdf::28                     0                       # What read queue length does an incoming req see
system.mem_ctrls0.rdQLenPdf::29                     0                       # What read queue length does an incoming req see
system.mem_ctrls0.rdQLenPdf::30                     0                       # What read queue length does an incoming req see
system.mem_ctrls0.rdQLenPdf::31                     0                       # What read queue length does an incoming req see
system.mem_ctrls0.wrQLenPdf::0                      2                       # What write queue length does an incoming req see
system.mem_ctrls0.wrQLenPdf::1                      2                       # What write queue length does an incoming req see
system.mem_ctrls0.wrQLenPdf::2                      2                       # What write queue length does an incoming req see
system.mem_ctrls0.wrQLenPdf::3                      2                       # What write queue length does an incoming req see
system.mem_ctrls0.wrQLenPdf::4                      2                       # What write queue length does an incoming req see
system.mem_ctrls0.wrQLenPdf::5                      2                       # What write queue length does an incoming req see
system.mem_ctrls0.wrQLenPdf::6                      2                       # What write queue length does an incoming req see
system.mem_ctrls0.wrQLenPdf::7                      2                       # What write queue length does an incoming req see
system.mem_ctrls0.wrQLenPdf::8                      2                       # What write queue length does an incoming req see
system.mem_ctrls0.wrQLenPdf::9                      2                       # What write queue length does an incoming req see
system.mem_ctrls0.wrQLenPdf::10                     2                       # What write queue length does an incoming req see
system.mem_ctrls0.wrQLenPdf::11                     2                       # What write queue length does an incoming req see
system.mem_ctrls0.wrQLenPdf::12                     2                       # What write queue length does an incoming req see
system.mem_ctrls0.wrQLenPdf::13                     2                       # What write queue length does an incoming req see
system.mem_ctrls0.wrQLenPdf::14                     2                       # What write queue length does an incoming req see
system.mem_ctrls0.wrQLenPdf::15                 43277                       # What write queue length does an incoming req see
system.mem_ctrls0.wrQLenPdf::16                 45176                       # What write queue length does an incoming req see
system.mem_ctrls0.wrQLenPdf::17                 80303                       # What write queue length does an incoming req see
system.mem_ctrls0.wrQLenPdf::18                 84757                       # What write queue length does an incoming req see
system.mem_ctrls0.wrQLenPdf::19                 85685                       # What write queue length does an incoming req see
system.mem_ctrls0.wrQLenPdf::20                 85832                       # What write queue length does an incoming req see
system.mem_ctrls0.wrQLenPdf::21                 85783                       # What write queue length does an incoming req see
system.mem_ctrls0.wrQLenPdf::22                 85800                       # What write queue length does an incoming req see
system.mem_ctrls0.wrQLenPdf::23                 85767                       # What write queue length does an incoming req see
system.mem_ctrls0.wrQLenPdf::24                 85807                       # What write queue length does an incoming req see
system.mem_ctrls0.wrQLenPdf::25                 85891                       # What write queue length does an incoming req see
system.mem_ctrls0.wrQLenPdf::26                 85890                       # What write queue length does an incoming req see
system.mem_ctrls0.wrQLenPdf::27                 85883                       # What write queue length does an incoming req see
system.mem_ctrls0.wrQLenPdf::28                 86251                       # What write queue length does an incoming req see
system.mem_ctrls0.wrQLenPdf::29                 86472                       # What write queue length does an incoming req see
system.mem_ctrls0.wrQLenPdf::30                 85967                       # What write queue length does an incoming req see
system.mem_ctrls0.wrQLenPdf::31                 85357                       # What write queue length does an incoming req see
system.mem_ctrls0.wrQLenPdf::32                 85248                       # What write queue length does an incoming req see
system.mem_ctrls0.wrQLenPdf::33                   102                       # What write queue length does an incoming req see
system.mem_ctrls0.wrQLenPdf::34                     9                       # What write queue length does an incoming req see
system.mem_ctrls0.wrQLenPdf::35                     1                       # What write queue length does an incoming req see
system.mem_ctrls0.wrQLenPdf::36                     0                       # What write queue length does an incoming req see
system.mem_ctrls0.wrQLenPdf::37                     0                       # What write queue length does an incoming req see
system.mem_ctrls0.wrQLenPdf::38                     0                       # What write queue length does an incoming req see
system.mem_ctrls0.wrQLenPdf::39                     0                       # What write queue length does an incoming req see
system.mem_ctrls0.wrQLenPdf::40                     0                       # What write queue length does an incoming req see
system.mem_ctrls0.wrQLenPdf::41                     0                       # What write queue length does an incoming req see
system.mem_ctrls0.wrQLenPdf::42                     0                       # What write queue length does an incoming req see
system.mem_ctrls0.wrQLenPdf::43                     0                       # What write queue length does an incoming req see
system.mem_ctrls0.wrQLenPdf::44                     0                       # What write queue length does an incoming req see
system.mem_ctrls0.wrQLenPdf::45                     0                       # What write queue length does an incoming req see
system.mem_ctrls0.wrQLenPdf::46                     0                       # What write queue length does an incoming req see
system.mem_ctrls0.wrQLenPdf::47                     0                       # What write queue length does an incoming req see
system.mem_ctrls0.wrQLenPdf::48                     0                       # What write queue length does an incoming req see
system.mem_ctrls0.wrQLenPdf::49                     0                       # What write queue length does an incoming req see
system.mem_ctrls0.wrQLenPdf::50                     0                       # What write queue length does an incoming req see
system.mem_ctrls0.wrQLenPdf::51                     0                       # What write queue length does an incoming req see
system.mem_ctrls0.wrQLenPdf::52                     0                       # What write queue length does an incoming req see
system.mem_ctrls0.wrQLenPdf::53                     0                       # What write queue length does an incoming req see
system.mem_ctrls0.wrQLenPdf::54                     0                       # What write queue length does an incoming req see
system.mem_ctrls0.wrQLenPdf::55                     0                       # What write queue length does an incoming req see
system.mem_ctrls0.wrQLenPdf::56                     0                       # What write queue length does an incoming req see
system.mem_ctrls0.wrQLenPdf::57                     0                       # What write queue length does an incoming req see
system.mem_ctrls0.wrQLenPdf::58                     0                       # What write queue length does an incoming req see
system.mem_ctrls0.wrQLenPdf::59                     0                       # What write queue length does an incoming req see
system.mem_ctrls0.wrQLenPdf::60                     0                       # What write queue length does an incoming req see
system.mem_ctrls0.wrQLenPdf::61                     0                       # What write queue length does an incoming req see
system.mem_ctrls0.wrQLenPdf::62                     0                       # What write queue length does an incoming req see
system.mem_ctrls0.wrQLenPdf::63                     0                       # What write queue length does an incoming req see
system.mem_ctrls0.bytesPerActivate::samples      2629891                       # Bytes accessed per row activation
system.mem_ctrls0.bytesPerActivate::mean   148.549110                       # Bytes accessed per row activation
system.mem_ctrls0.bytesPerActivate::gmean   110.362197                       # Bytes accessed per row activation
system.mem_ctrls0.bytesPerActivate::stdev   150.511696                       # Bytes accessed per row activation
system.mem_ctrls0.bytesPerActivate::0-127      1371341     52.14%     52.14% # Bytes accessed per row activation
system.mem_ctrls0.bytesPerActivate::128-255       850303     32.33%     84.48% # Bytes accessed per row activation
system.mem_ctrls0.bytesPerActivate::256-383       161372      6.14%     90.61% # Bytes accessed per row activation
system.mem_ctrls0.bytesPerActivate::384-511        89309      3.40%     94.01% # Bytes accessed per row activation
system.mem_ctrls0.bytesPerActivate::512-639        87694      3.33%     97.34% # Bytes accessed per row activation
system.mem_ctrls0.bytesPerActivate::640-767        30288      1.15%     98.49% # Bytes accessed per row activation
system.mem_ctrls0.bytesPerActivate::768-895        24337      0.93%     99.42% # Bytes accessed per row activation
system.mem_ctrls0.bytesPerActivate::896-1023         8231      0.31%     99.73% # Bytes accessed per row activation
system.mem_ctrls0.bytesPerActivate::1024-1151         7016      0.27%    100.00% # Bytes accessed per row activation
system.mem_ctrls0.bytesPerActivate::total      2629891                       # Bytes accessed per row activation
system.mem_ctrls0.rdPerTurnAround::samples        85175                       # Reads before turning the bus around for writes
system.mem_ctrls0.rdPerTurnAround::mean     54.580828                       # Reads before turning the bus around for writes
system.mem_ctrls0.rdPerTurnAround::gmean    48.906831                       # Reads before turning the bus around for writes
system.mem_ctrls0.rdPerTurnAround::stdev   110.996277                       # Reads before turning the bus around for writes
system.mem_ctrls0.rdPerTurnAround::0-1023        85174    100.00%    100.00% # Reads before turning the bus around for writes
system.mem_ctrls0.rdPerTurnAround::30720-31743            1      0.00%    100.00% # Reads before turning the bus around for writes
system.mem_ctrls0.rdPerTurnAround::total        85175                       # Reads before turning the bus around for writes
system.mem_ctrls0.wrPerTurnAround::samples        85175                       # Writes before turning the bus around for reads
system.mem_ctrls0.wrPerTurnAround::mean     17.085671                       # Writes before turning the bus around for reads
system.mem_ctrls0.wrPerTurnAround::gmean    17.052812                       # Writes before turning the bus around for reads
system.mem_ctrls0.wrPerTurnAround::stdev     1.061419                       # Writes before turning the bus around for reads
system.mem_ctrls0.wrPerTurnAround::16           40211     47.21%     47.21% # Writes before turning the bus around for reads
system.mem_ctrls0.wrPerTurnAround::17            1441      1.69%     48.90% # Writes before turning the bus around for reads
system.mem_ctrls0.wrPerTurnAround::18           39899     46.84%     95.75% # Writes before turning the bus around for reads
system.mem_ctrls0.wrPerTurnAround::19            3310      3.89%     99.63% # Writes before turning the bus around for reads
system.mem_ctrls0.wrPerTurnAround::20             278      0.33%     99.96% # Writes before turning the bus around for reads
system.mem_ctrls0.wrPerTurnAround::21              32      0.04%    100.00% # Writes before turning the bus around for reads
system.mem_ctrls0.wrPerTurnAround::22               3      0.00%    100.00% # Writes before turning the bus around for reads
system.mem_ctrls0.wrPerTurnAround::29               1      0.00%    100.00% # Writes before turning the bus around for reads
system.mem_ctrls0.wrPerTurnAround::total        85175                       # Writes before turning the bus around for reads
system.mem_ctrls0.totQLat                 99421294527                       # Total ticks spent queuing
system.mem_ctrls0.totMemAccLat           186588844527                       # Total ticks spent from burst creation until serviced by the DRAM
system.mem_ctrls0.totBusLat               23244680000                       # Total ticks spent in databus transfers
system.mem_ctrls0.avgQLat                    21385.82                       # Average queueing delay per DRAM burst
system.mem_ctrls0.avgBusLat                   5000.00                       # Average bus latency per DRAM burst
system.mem_ctrls0.avgMemAccLat               40135.82                       # Average memory access latency per DRAM burst
system.mem_ctrls0.avgRdBW                      161.43                       # Average DRAM read bandwidth in MiByte/s
system.mem_ctrls0.avgWrBW                       50.53                       # Average achieved write bandwidth in MiByte/s
system.mem_ctrls0.avgRdBWSys                   161.45                       # Average system read bandwidth in MiByte/s
system.mem_ctrls0.avgWrBWSys                    50.53                       # Average system write bandwidth in MiByte/s
system.mem_ctrls0.peakBW                     12800.00                       # Theoretical peak bandwidth in MiByte/s
system.mem_ctrls0.busUtil                        1.66                       # Data bus utilization in percentage
system.mem_ctrls0.busUtilRead                    1.26                       # Data bus utilization in percentage for reads
system.mem_ctrls0.busUtilWrite                   0.39                       # Data bus utilization in percentage for writes
system.mem_ctrls0.avgRdQLen                      1.02                       # Average read queue length when enqueuing
system.mem_ctrls0.avgWrQLen                     24.58                       # Average write queue length when enqueuing
system.mem_ctrls0.readRowHits                 2965043                       # Number of row buffer hits during reads
system.mem_ctrls0.writeRowHits                 509265                       # Number of row buffer hits during writes
system.mem_ctrls0.readRowHitRate                63.78                       # Row buffer hit rate for reads
system.mem_ctrls0.writeRowHitRate               34.99                       # Row buffer hit rate for writes
system.mem_ctrls0.avgGap                    301914.30                       # Average gap between requests
system.mem_ctrls0.pageHitRate                   56.92                       # Row buffer hit rate, read and write combined
system.mem_ctrls0_0.actEnergy              9452588880                       # Energy for activate commands per rank (pJ)
system.mem_ctrls0_0.preEnergy              5024147370                       # Energy for precharge commands per rank (pJ)
system.mem_ctrls0_0.readEnergy            16688957460                       # Energy for read commands per rank (pJ)
system.mem_ctrls0_0.writeEnergy            3842541180                       # Energy for write commands per rank (pJ)
system.mem_ctrls0_0.refreshEnergy        143588508960.000031                       # Energy for refresh commands per rank (pJ)
system.mem_ctrls0_0.actBackEnergy         95210707530                       # Energy for active background per rank (pJ)
system.mem_ctrls0_0.preBackEnergy          5125890240                       # Energy for precharge background per rank (pJ)
system.mem_ctrls0_0.actPowerDownEnergy   553165647930                       # Energy for active power-down per rank (pJ)
system.mem_ctrls0_0.prePowerDownEnergy   107331506400                       # Energy for precharge power-down per rank (pJ)
system.mem_ctrls0_0.selfRefreshEnergy     38764180530                       # Energy for self refresh per rank (pJ)
system.mem_ctrls0_0.totalEnergy          978229251420                       # Total energy per rank (pJ)
system.mem_ctrls0_0.averagePower           530.743806                       # Core power per rank (mW)
system.mem_ctrls0_0.totalIdleTime        1620912197840                       # Total Idle time Per DRAM Rank
system.mem_ctrls0_0.memoryStateTime::IDLE   5265009695                       # Time in different power states
system.mem_ctrls0_0.memoryStateTime::REF  60830048000                       # Time in different power states
system.mem_ctrls0_0.memoryStateTime::SREF 128316216792                       # Time in different power states
system.mem_ctrls0_0.memoryStateTime::PRE_PDN 279506127143                       # Time in different power states
system.mem_ctrls0_0.memoryStateTime::ACT 156119502177                       # Time in different power states
system.mem_ctrls0_0.memoryStateTime::ACT_PDN 1213091985330                       # Time in different power states
system.mem_ctrls0_1.actEnergy              9324897120                       # Energy for activate commands per rank (pJ)
system.mem_ctrls0_1.preEnergy              4956288975                       # Energy for precharge commands per rank (pJ)
system.mem_ctrls0_1.readEnergy            16504445580                       # Energy for read commands per rank (pJ)
system.mem_ctrls0_1.writeEnergy            3753978660                       # Energy for write commands per rank (pJ)
system.mem_ctrls0_1.refreshEnergy        143216037120.000031                       # Energy for refresh commands per rank (pJ)
system.mem_ctrls0_1.actBackEnergy         95340099810                       # Energy for active background per rank (pJ)
system.mem_ctrls0_1.preBackEnergy          5150249280                       # Energy for precharge background per rank (pJ)
system.mem_ctrls0_1.actPowerDownEnergy   548163838080                       # Energy for active power-down per rank (pJ)
system.mem_ctrls0_1.prePowerDownEnergy   108627763680                       # Energy for precharge power-down per rank (pJ)
system.mem_ctrls0_1.selfRefreshEnergy     40695318435                       # Energy for self refresh per rank (pJ)
system.mem_ctrls0_1.totalEnergy          975769514670                       # Total energy per rank (pJ)
system.mem_ctrls0_1.averagePower           529.409261                       # Core power per rank (mW)
system.mem_ctrls0_1.totalIdleTime        1620556621437                       # Total Idle time Per DRAM Rank
system.mem_ctrls0_1.memoryStateTime::IDLE   5370331592                       # Time in different power states
system.mem_ctrls0_1.memoryStateTime::REF  60675176000                       # Time in different power states
system.mem_ctrls0_1.memoryStateTime::SREF 135557740252                       # Time in different power states
system.mem_ctrls0_1.memoryStateTime::PRE_PDN 282886580518                       # Time in different power states
system.mem_ctrls0_1.memoryStateTime::ACT 156525944699                       # Time in different power states
system.mem_ctrls0_1.memoryStateTime::ACT_PDN 1202113116076                       # Time in different power states
system.mem_ctrls1.pwrStateResidencyTicks::UNDEFINED 75113282689839                       # Cumulative time (in ticks) in various power states
system.mem_ctrls1.bytes_read::cpu.inst            128                       # Number of bytes read from this memory
system.mem_ctrls1.bytes_read::cpu.data            192                       # Number of bytes read from this memory
system.mem_ctrls1.bytes_read::switch_cpus.inst        43840                       # Number of bytes read from this memory
system.mem_ctrls1.bytes_read::switch_cpus.data    232859200                       # Number of bytes read from this memory
system.mem_ctrls1.bytes_read::switch_cpus_1.inst         5504                       # Number of bytes read from this memory
system.mem_ctrls1.bytes_read::switch_cpus_1.data     64630016                       # Number of bytes read from this memory
system.mem_ctrls1.bytes_read::total         297538880                       # Number of bytes read from this memory
system.mem_ctrls1.bytes_inst_read::cpu.inst          128                       # Number of instructions bytes read from this memory
system.mem_ctrls1.bytes_inst_read::switch_cpus.inst        43840                       # Number of instructions bytes read from this memory
system.mem_ctrls1.bytes_inst_read::switch_cpus_1.inst         5504                       # Number of instructions bytes read from this memory
system.mem_ctrls1.bytes_inst_read::total        49472                       # Number of instructions bytes read from this memory
system.mem_ctrls1.bytes_written::writebacks     93126720                       # Number of bytes written to this memory
system.mem_ctrls1.bytes_written::total       93126720                       # Number of bytes written to this memory
system.mem_ctrls1.num_reads::cpu.inst               2                       # Number of read requests responded to by this memory
system.mem_ctrls1.num_reads::cpu.data               3                       # Number of read requests responded to by this memory
system.mem_ctrls1.num_reads::switch_cpus.inst          685                       # Number of read requests responded to by this memory
system.mem_ctrls1.num_reads::switch_cpus.data      3638425                       # Number of read requests responded to by this memory
system.mem_ctrls1.num_reads::switch_cpus_1.inst           86                       # Number of read requests responded to by this memory
system.mem_ctrls1.num_reads::switch_cpus_1.data      1009844                       # Number of read requests responded to by this memory
system.mem_ctrls1.num_reads::total            4649045                       # Number of read requests responded to by this memory
system.mem_ctrls1.num_writes::writebacks      1455105                       # Number of write requests responded to by this memory
system.mem_ctrls1.num_writes::total           1455105                       # Number of write requests responded to by this memory
system.mem_ctrls1.bw_read::cpu.inst                69                       # Total read bandwidth from this memory (bytes/s)
system.mem_ctrls1.bw_read::cpu.data               104                       # Total read bandwidth from this memory (bytes/s)
system.mem_ctrls1.bw_read::switch_cpus.inst        23786                       # Total read bandwidth from this memory (bytes/s)
system.mem_ctrls1.bw_read::switch_cpus.data    126339076                       # Total read bandwidth from this memory (bytes/s)
system.mem_ctrls1.bw_read::switch_cpus_1.inst         2986                       # Total read bandwidth from this memory (bytes/s)
system.mem_ctrls1.bw_read::switch_cpus_1.data     35065381                       # Total read bandwidth from this memory (bytes/s)
system.mem_ctrls1.bw_read::total            161431402                       # Total read bandwidth from this memory (bytes/s)
system.mem_ctrls1.bw_inst_read::cpu.inst           69                       # Instruction read bandwidth from this memory (bytes/s)
system.mem_ctrls1.bw_inst_read::switch_cpus.inst        23786                       # Instruction read bandwidth from this memory (bytes/s)
system.mem_ctrls1.bw_inst_read::switch_cpus_1.inst         2986                       # Instruction read bandwidth from this memory (bytes/s)
system.mem_ctrls1.bw_inst_read::total           26841                       # Instruction read bandwidth from this memory (bytes/s)
system.mem_ctrls1.bw_write::writebacks       50526428                       # Write bandwidth from this memory (bytes/s)
system.mem_ctrls1.bw_write::total            50526428                       # Write bandwidth from this memory (bytes/s)
system.mem_ctrls1.bw_total::writebacks       50526428                       # Total bandwidth to/from this memory (bytes/s)
system.mem_ctrls1.bw_total::cpu.inst               69                       # Total bandwidth to/from this memory (bytes/s)
system.mem_ctrls1.bw_total::cpu.data              104                       # Total bandwidth to/from this memory (bytes/s)
system.mem_ctrls1.bw_total::switch_cpus.inst        23786                       # Total bandwidth to/from this memory (bytes/s)
system.mem_ctrls1.bw_total::switch_cpus.data    126339076                       # Total bandwidth to/from this memory (bytes/s)
system.mem_ctrls1.bw_total::switch_cpus_1.inst         2986                       # Total bandwidth to/from this memory (bytes/s)
system.mem_ctrls1.bw_total::switch_cpus_1.data     35065381                       # Total bandwidth to/from this memory (bytes/s)
system.mem_ctrls1.bw_total::total           211957830                       # Total bandwidth to/from this memory (bytes/s)
system.mem_ctrls1.readReqs                    4649045                       # Number of read requests accepted
system.mem_ctrls1.writeReqs                   1455105                       # Number of write requests accepted
system.mem_ctrls1.readBursts                  4649045                       # Number of DRAM read bursts, including those serviced by the write queue
system.mem_ctrls1.writeBursts                 1455105                       # Number of DRAM write bursts, including those merged in the write queue
system.mem_ctrls1.bytesReadDRAM             297500544                       # Total number of bytes read from DRAM
system.mem_ctrls1.bytesReadWrQ                  38336                       # Total number of bytes read from write queue
system.mem_ctrls1.bytesWritten               93125440                       # Total number of bytes written to DRAM
system.mem_ctrls1.bytesReadSys              297538880                       # Total read bytes from the system interface side
system.mem_ctrls1.bytesWrittenSys            93126720                       # Total written bytes from the system interface side
system.mem_ctrls1.servicedByWrQ                   599                       # Number of DRAM read bursts serviced by the write queue
system.mem_ctrls1.mergedWrBursts                    0                       # Number of DRAM write bursts merged with an existing one
system.mem_ctrls1.neitherReadNorWriteReqs            0                       # Number of requests that are neither read nor write
system.mem_ctrls1.perBankRdBursts::0           297018                       # Per bank write bursts
system.mem_ctrls1.perBankRdBursts::1           292983                       # Per bank write bursts
system.mem_ctrls1.perBankRdBursts::2           289303                       # Per bank write bursts
system.mem_ctrls1.perBankRdBursts::3           289901                       # Per bank write bursts
system.mem_ctrls1.perBankRdBursts::4           289802                       # Per bank write bursts
system.mem_ctrls1.perBankRdBursts::5           292104                       # Per bank write bursts
system.mem_ctrls1.perBankRdBursts::6           292245                       # Per bank write bursts
system.mem_ctrls1.perBankRdBursts::7           293531                       # Per bank write bursts
system.mem_ctrls1.perBankRdBursts::8           295214                       # Per bank write bursts
system.mem_ctrls1.perBankRdBursts::9           291871                       # Per bank write bursts
system.mem_ctrls1.perBankRdBursts::10          286023                       # Per bank write bursts
system.mem_ctrls1.perBankRdBursts::11          283241                       # Per bank write bursts
system.mem_ctrls1.perBankRdBursts::12          282630                       # Per bank write bursts
system.mem_ctrls1.perBankRdBursts::13          286970                       # Per bank write bursts
system.mem_ctrls1.perBankRdBursts::14          292680                       # Per bank write bursts
system.mem_ctrls1.perBankRdBursts::15          292930                       # Per bank write bursts
system.mem_ctrls1.perBankWrBursts::0            93716                       # Per bank write bursts
system.mem_ctrls1.perBankWrBursts::1            92244                       # Per bank write bursts
system.mem_ctrls1.perBankWrBursts::2            91459                       # Per bank write bursts
system.mem_ctrls1.perBankWrBursts::3            92551                       # Per bank write bursts
system.mem_ctrls1.perBankWrBursts::4            93068                       # Per bank write bursts
system.mem_ctrls1.perBankWrBursts::5            92777                       # Per bank write bursts
system.mem_ctrls1.perBankWrBursts::6            90304                       # Per bank write bursts
system.mem_ctrls1.perBankWrBursts::7            89754                       # Per bank write bursts
system.mem_ctrls1.perBankWrBursts::8            90178                       # Per bank write bursts
system.mem_ctrls1.perBankWrBursts::9            90526                       # Per bank write bursts
system.mem_ctrls1.perBankWrBursts::10           90004                       # Per bank write bursts
system.mem_ctrls1.perBankWrBursts::11           88711                       # Per bank write bursts
system.mem_ctrls1.perBankWrBursts::12           87739                       # Per bank write bursts
system.mem_ctrls1.perBankWrBursts::13           88621                       # Per bank write bursts
system.mem_ctrls1.perBankWrBursts::14           91455                       # Per bank write bursts
system.mem_ctrls1.perBankWrBursts::15           91978                       # Per bank write bursts
system.mem_ctrls1.numRdRetry                        0                       # Number of times read queue was full causing retry
system.mem_ctrls1.numWrRetry                        0                       # Number of times write queue was full causing retry
system.mem_ctrls1.totGap                 1843128291069                       # Total gap between requests
system.mem_ctrls1.readPktSize::0                    0                       # Read request sizes (log2)
system.mem_ctrls1.readPktSize::1                    0                       # Read request sizes (log2)
system.mem_ctrls1.readPktSize::2                    0                       # Read request sizes (log2)
system.mem_ctrls1.readPktSize::3                    0                       # Read request sizes (log2)
system.mem_ctrls1.readPktSize::4                    0                       # Read request sizes (log2)
system.mem_ctrls1.readPktSize::5                    0                       # Read request sizes (log2)
system.mem_ctrls1.readPktSize::6              4649045                       # Read request sizes (log2)
system.mem_ctrls1.writePktSize::0                   0                       # Write request sizes (log2)
system.mem_ctrls1.writePktSize::1                   0                       # Write request sizes (log2)
system.mem_ctrls1.writePktSize::2                   0                       # Write request sizes (log2)
system.mem_ctrls1.writePktSize::3                   0                       # Write request sizes (log2)
system.mem_ctrls1.writePktSize::4                   0                       # Write request sizes (log2)
system.mem_ctrls1.writePktSize::5                   0                       # Write request sizes (log2)
system.mem_ctrls1.writePktSize::6             1455105                       # Write request sizes (log2)
system.mem_ctrls1.rdQLenPdf::0                4368379                       # What read queue length does an incoming req see
system.mem_ctrls1.rdQLenPdf::1                 224885                       # What read queue length does an incoming req see
system.mem_ctrls1.rdQLenPdf::2                  50952                       # What read queue length does an incoming req see
system.mem_ctrls1.rdQLenPdf::3                   4229                       # What read queue length does an incoming req see
system.mem_ctrls1.rdQLenPdf::4                      1                       # What read queue length does an incoming req see
system.mem_ctrls1.rdQLenPdf::5                      0                       # What read queue length does an incoming req see
system.mem_ctrls1.rdQLenPdf::6                      0                       # What read queue length does an incoming req see
system.mem_ctrls1.rdQLenPdf::7                      0                       # What read queue length does an incoming req see
system.mem_ctrls1.rdQLenPdf::8                      0                       # What read queue length does an incoming req see
system.mem_ctrls1.rdQLenPdf::9                      0                       # What read queue length does an incoming req see
system.mem_ctrls1.rdQLenPdf::10                     0                       # What read queue length does an incoming req see
system.mem_ctrls1.rdQLenPdf::11                     0                       # What read queue length does an incoming req see
system.mem_ctrls1.rdQLenPdf::12                     0                       # What read queue length does an incoming req see
system.mem_ctrls1.rdQLenPdf::13                     0                       # What read queue length does an incoming req see
system.mem_ctrls1.rdQLenPdf::14                     0                       # What read queue length does an incoming req see
system.mem_ctrls1.rdQLenPdf::15                     0                       # What read queue length does an incoming req see
system.mem_ctrls1.rdQLenPdf::16                     0                       # What read queue length does an incoming req see
system.mem_ctrls1.rdQLenPdf::17                     0                       # What read queue length does an incoming req see
system.mem_ctrls1.rdQLenPdf::18                     0                       # What read queue length does an incoming req see
system.mem_ctrls1.rdQLenPdf::19                     0                       # What read queue length does an incoming req see
system.mem_ctrls1.rdQLenPdf::20                     0                       # What read queue length does an incoming req see
system.mem_ctrls1.rdQLenPdf::21                     0                       # What read queue length does an incoming req see
system.mem_ctrls1.rdQLenPdf::22                     0                       # What read queue length does an incoming req see
system.mem_ctrls1.rdQLenPdf::23                     0                       # What read queue length does an incoming req see
system.mem_ctrls1.rdQLenPdf::24                     0                       # What read queue length does an incoming req see
system.mem_ctrls1.rdQLenPdf::25                     0                       # What read queue length does an incoming req see
system.mem_ctrls1.rdQLenPdf::26                     0                       # What read queue length does an incoming req see
system.mem_ctrls1.rdQLenPdf::27                     0                       # What read queue length does an incoming req see
system.mem_ctrls1.rdQLenPdf::28                     0                       # What read queue length does an incoming req see
system.mem_ctrls1.rdQLenPdf::29                     0                       # What read queue length does an incoming req see
system.mem_ctrls1.rdQLenPdf::30                     0                       # What read queue length does an incoming req see
system.mem_ctrls1.rdQLenPdf::31                     0                       # What read queue length does an incoming req see
system.mem_ctrls1.wrQLenPdf::0                      2                       # What write queue length does an incoming req see
system.mem_ctrls1.wrQLenPdf::1                      2                       # What write queue length does an incoming req see
system.mem_ctrls1.wrQLenPdf::2                      2                       # What write queue length does an incoming req see
system.mem_ctrls1.wrQLenPdf::3                      2                       # What write queue length does an incoming req see
system.mem_ctrls1.wrQLenPdf::4                      2                       # What write queue length does an incoming req see
system.mem_ctrls1.wrQLenPdf::5                      2                       # What write queue length does an incoming req see
system.mem_ctrls1.wrQLenPdf::6                      2                       # What write queue length does an incoming req see
system.mem_ctrls1.wrQLenPdf::7                      2                       # What write queue length does an incoming req see
system.mem_ctrls1.wrQLenPdf::8                      2                       # What write queue length does an incoming req see
system.mem_ctrls1.wrQLenPdf::9                      2                       # What write queue length does an incoming req see
system.mem_ctrls1.wrQLenPdf::10                     2                       # What write queue length does an incoming req see
system.mem_ctrls1.wrQLenPdf::11                     2                       # What write queue length does an incoming req see
system.mem_ctrls1.wrQLenPdf::12                     2                       # What write queue length does an incoming req see
system.mem_ctrls1.wrQLenPdf::13                     2                       # What write queue length does an incoming req see
system.mem_ctrls1.wrQLenPdf::14                     2                       # What write queue length does an incoming req see
system.mem_ctrls1.wrQLenPdf::15                 43293                       # What write queue length does an incoming req see
system.mem_ctrls1.wrQLenPdf::16                 45310                       # What write queue length does an incoming req see
system.mem_ctrls1.wrQLenPdf::17                 80391                       # What write queue length does an incoming req see
system.mem_ctrls1.wrQLenPdf::18                 84769                       # What write queue length does an incoming req see
system.mem_ctrls1.wrQLenPdf::19                 85639                       # What write queue length does an incoming req see
system.mem_ctrls1.wrQLenPdf::20                 85772                       # What write queue length does an incoming req see
system.mem_ctrls1.wrQLenPdf::21                 85742                       # What write queue length does an incoming req see
system.mem_ctrls1.wrQLenPdf::22                 85769                       # What write queue length does an incoming req see
system.mem_ctrls1.wrQLenPdf::23                 85739                       # What write queue length does an incoming req see
system.mem_ctrls1.wrQLenPdf::24                 85807                       # What write queue length does an incoming req see
system.mem_ctrls1.wrQLenPdf::25                 85868                       # What write queue length does an incoming req see
system.mem_ctrls1.wrQLenPdf::26                 85826                       # What write queue length does an incoming req see
system.mem_ctrls1.wrQLenPdf::27                 85898                       # What write queue length does an incoming req see
system.mem_ctrls1.wrQLenPdf::28                 86184                       # What write queue length does an incoming req see
system.mem_ctrls1.wrQLenPdf::29                 86436                       # What write queue length does an incoming req see
system.mem_ctrls1.wrQLenPdf::30                 85941                       # What write queue length does an incoming req see
system.mem_ctrls1.wrQLenPdf::31                 85351                       # What write queue length does an incoming req see
system.mem_ctrls1.wrQLenPdf::32                 85224                       # What write queue length does an incoming req see
system.mem_ctrls1.wrQLenPdf::33                   100                       # What write queue length does an incoming req see
system.mem_ctrls1.wrQLenPdf::34                    15                       # What write queue length does an incoming req see
system.mem_ctrls1.wrQLenPdf::35                     1                       # What write queue length does an incoming req see
system.mem_ctrls1.wrQLenPdf::36                     0                       # What write queue length does an incoming req see
system.mem_ctrls1.wrQLenPdf::37                     0                       # What write queue length does an incoming req see
system.mem_ctrls1.wrQLenPdf::38                     0                       # What write queue length does an incoming req see
system.mem_ctrls1.wrQLenPdf::39                     0                       # What write queue length does an incoming req see
system.mem_ctrls1.wrQLenPdf::40                     0                       # What write queue length does an incoming req see
system.mem_ctrls1.wrQLenPdf::41                     0                       # What write queue length does an incoming req see
system.mem_ctrls1.wrQLenPdf::42                     0                       # What write queue length does an incoming req see
system.mem_ctrls1.wrQLenPdf::43                     0                       # What write queue length does an incoming req see
system.mem_ctrls1.wrQLenPdf::44                     0                       # What write queue length does an incoming req see
system.mem_ctrls1.wrQLenPdf::45                     0                       # What write queue length does an incoming req see
system.mem_ctrls1.wrQLenPdf::46                     0                       # What write queue length does an incoming req see
system.mem_ctrls1.wrQLenPdf::47                     0                       # What write queue length does an incoming req see
system.mem_ctrls1.wrQLenPdf::48                     0                       # What write queue length does an incoming req see
system.mem_ctrls1.wrQLenPdf::49                     0                       # What write queue length does an incoming req see
system.mem_ctrls1.wrQLenPdf::50                     0                       # What write queue length does an incoming req see
system.mem_ctrls1.wrQLenPdf::51                     0                       # What write queue length does an incoming req see
system.mem_ctrls1.wrQLenPdf::52                     0                       # What write queue length does an incoming req see
system.mem_ctrls1.wrQLenPdf::53                     0                       # What write queue length does an incoming req see
system.mem_ctrls1.wrQLenPdf::54                     0                       # What write queue length does an incoming req see
system.mem_ctrls1.wrQLenPdf::55                     0                       # What write queue length does an incoming req see
system.mem_ctrls1.wrQLenPdf::56                     0                       # What write queue length does an incoming req see
system.mem_ctrls1.wrQLenPdf::57                     0                       # What write queue length does an incoming req see
system.mem_ctrls1.wrQLenPdf::58                     0                       # What write queue length does an incoming req see
system.mem_ctrls1.wrQLenPdf::59                     0                       # What write queue length does an incoming req see
system.mem_ctrls1.wrQLenPdf::60                     0                       # What write queue length does an incoming req see
system.mem_ctrls1.wrQLenPdf::61                     0                       # What write queue length does an incoming req see
system.mem_ctrls1.wrQLenPdf::62                     0                       # What write queue length does an incoming req see
system.mem_ctrls1.wrQLenPdf::63                     0                       # What write queue length does an incoming req see
system.mem_ctrls1.bytesPerActivate::samples      2628564                       # Bytes accessed per row activation
system.mem_ctrls1.bytesPerActivate::mean   148.607523                       # Bytes accessed per row activation
system.mem_ctrls1.bytesPerActivate::gmean   110.422544                       # Bytes accessed per row activation
system.mem_ctrls1.bytesPerActivate::stdev   150.538644                       # Bytes accessed per row activation
system.mem_ctrls1.bytesPerActivate::0-127      1368719     52.07%     52.07% # Bytes accessed per row activation
system.mem_ctrls1.bytesPerActivate::128-255       852535     32.43%     84.50% # Bytes accessed per row activation
system.mem_ctrls1.bytesPerActivate::256-383       160685      6.11%     90.62% # Bytes accessed per row activation
system.mem_ctrls1.bytesPerActivate::384-511        88718      3.38%     93.99% # Bytes accessed per row activation
system.mem_ctrls1.bytesPerActivate::512-639        87965      3.35%     97.34% # Bytes accessed per row activation
system.mem_ctrls1.bytesPerActivate::640-767        30449      1.16%     98.50% # Bytes accessed per row activation
system.mem_ctrls1.bytesPerActivate::768-895        24187      0.92%     99.42% # Bytes accessed per row activation
system.mem_ctrls1.bytesPerActivate::896-1023         8258      0.31%     99.73% # Bytes accessed per row activation
system.mem_ctrls1.bytesPerActivate::1024-1151         7048      0.27%    100.00% # Bytes accessed per row activation
system.mem_ctrls1.bytesPerActivate::total      2628564                       # Bytes accessed per row activation
system.mem_ctrls1.rdPerTurnAround::samples        85155                       # Reads before turning the bus around for writes
system.mem_ctrls1.rdPerTurnAround::mean     54.587799                       # Reads before turning the bus around for writes
system.mem_ctrls1.rdPerTurnAround::gmean    48.948087                       # Reads before turning the bus around for writes
system.mem_ctrls1.rdPerTurnAround::stdev   111.098165                       # Reads before turning the bus around for writes
system.mem_ctrls1.rdPerTurnAround::0-1023        85154    100.00%    100.00% # Reads before turning the bus around for writes
system.mem_ctrls1.rdPerTurnAround::30720-31743            1      0.00%    100.00% # Reads before turning the bus around for writes
system.mem_ctrls1.rdPerTurnAround::total        85155                       # Reads before turning the bus around for writes
system.mem_ctrls1.wrPerTurnAround::samples        85155                       # Writes before turning the bus around for reads
system.mem_ctrls1.wrPerTurnAround::mean     17.087488                       # Writes before turning the bus around for reads
system.mem_ctrls1.wrPerTurnAround::gmean    17.054603                       # Writes before turning the bus around for reads
system.mem_ctrls1.wrPerTurnAround::stdev     1.062154                       # Writes before turning the bus around for reads
system.mem_ctrls1.wrPerTurnAround::16           40103     47.09%     47.09% # Writes before turning the bus around for reads
system.mem_ctrls1.wrPerTurnAround::17            1516      1.78%     48.87% # Writes before turning the bus around for reads
system.mem_ctrls1.wrPerTurnAround::18           39905     46.86%     95.74% # Writes before turning the bus around for reads
system.mem_ctrls1.wrPerTurnAround::19            3292      3.87%     99.60% # Writes before turning the bus around for reads
system.mem_ctrls1.wrPerTurnAround::20             308      0.36%     99.96% # Writes before turning the bus around for reads
system.mem_ctrls1.wrPerTurnAround::21              26      0.03%     99.99% # Writes before turning the bus around for reads
system.mem_ctrls1.wrPerTurnAround::22               4      0.00%    100.00% # Writes before turning the bus around for reads
system.mem_ctrls1.wrPerTurnAround::33               1      0.00%    100.00% # Writes before turning the bus around for reads
system.mem_ctrls1.wrPerTurnAround::total        85155                       # Writes before turning the bus around for reads
system.mem_ctrls1.totQLat                 99563155680                       # Total ticks spent queuing
system.mem_ctrls1.totMemAccLat           186721518180                       # Total ticks spent from burst creation until serviced by the DRAM
system.mem_ctrls1.totBusLat               23242230000                       # Total ticks spent in databus transfers
system.mem_ctrls1.avgQLat                    21418.59                       # Average queueing delay per DRAM burst
system.mem_ctrls1.avgBusLat                   5000.00                       # Average bus latency per DRAM burst
system.mem_ctrls1.avgMemAccLat               40168.59                       # Average memory access latency per DRAM burst
system.mem_ctrls1.avgRdBW                      161.41                       # Average DRAM read bandwidth in MiByte/s
system.mem_ctrls1.avgWrBW                       50.53                       # Average achieved write bandwidth in MiByte/s
system.mem_ctrls1.avgRdBWSys                   161.43                       # Average system read bandwidth in MiByte/s
system.mem_ctrls1.avgWrBWSys                    50.53                       # Average system write bandwidth in MiByte/s
system.mem_ctrls1.peakBW                     12800.00                       # Theoretical peak bandwidth in MiByte/s
system.mem_ctrls1.busUtil                        1.66                       # Data bus utilization in percentage
system.mem_ctrls1.busUtilRead                    1.26                       # Data bus utilization in percentage for reads
system.mem_ctrls1.busUtilWrite                   0.39                       # Data bus utilization in percentage for writes
system.mem_ctrls1.avgRdQLen                      1.02                       # Average read queue length when enqueuing
system.mem_ctrls1.avgWrQLen                     24.58                       # Average write queue length when enqueuing
system.mem_ctrls1.readRowHits                 2965432                       # Number of row buffer hits during reads
system.mem_ctrls1.writeRowHits                 509529                       # Number of row buffer hits during writes
system.mem_ctrls1.readRowHitRate                63.79                       # Row buffer hit rate for reads
system.mem_ctrls1.writeRowHitRate               35.02                       # Row buffer hit rate for writes
system.mem_ctrls1.avgGap                    301946.76                       # Average gap between requests
system.mem_ctrls1.pageHitRate                   56.93                       # Row buffer hit rate, read and write combined
system.mem_ctrls1_0.actEnergy              9451903440                       # Energy for activate commands per rank (pJ)
system.mem_ctrls1_0.preEnergy              5023794435                       # Energy for precharge commands per rank (pJ)
system.mem_ctrls1_0.readEnergy            16685373180                       # Energy for read commands per rank (pJ)
system.mem_ctrls1_0.writeEnergy            3841257060                       # Energy for write commands per rank (pJ)
system.mem_ctrls1_0.refreshEnergy        143539337760.000031                       # Energy for refresh commands per rank (pJ)
system.mem_ctrls1_0.actBackEnergy         95023420920                       # Energy for active background per rank (pJ)
system.mem_ctrls1_0.preBackEnergy          5128215840                       # Energy for precharge background per rank (pJ)
system.mem_ctrls1_0.actPowerDownEnergy   553122684180                       # Energy for active power-down per rank (pJ)
system.mem_ctrls1_0.prePowerDownEnergy   107574978720                       # Energy for precharge power-down per rank (pJ)
system.mem_ctrls1_0.selfRefreshEnergy     38673548640                       # Energy for self refresh per rank (pJ)
system.mem_ctrls1_0.totalEnergy          978096859605                       # Total energy per rank (pJ)
system.mem_ctrls1_0.averagePower           530.671977                       # Core power per rank (mW)
system.mem_ctrls1_0.totalIdleTime        1621314799780                       # Total Idle time Per DRAM Rank
system.mem_ctrls1_0.memoryStateTime::IDLE   5253274107                       # Time in different power states
system.mem_ctrls1_0.memoryStateTime::REF  60809008000                       # Time in different power states
system.mem_ctrls1_0.memoryStateTime::SREF 128185939115                       # Time in different power states
system.mem_ctrls1_0.memoryStateTime::PRE_PDN 280144687234                       # Time in different power states
system.mem_ctrls1_0.memoryStateTime::ACT 155749480021                       # Time in different power states
system.mem_ctrls1_0.memoryStateTime::ACT_PDN 1212986500660                       # Time in different power states
system.mem_ctrls1_1.actEnergy              9316086360                       # Energy for activate commands per rank (pJ)
system.mem_ctrls1_1.preEnergy              4951605945                       # Energy for precharge commands per rank (pJ)
system.mem_ctrls1_1.readEnergy            16504531260                       # Energy for read commands per rank (pJ)
system.mem_ctrls1_1.writeEnergy            3754286640                       # Energy for write commands per rank (pJ)
system.mem_ctrls1_1.refreshEnergy        143181617280.000031                       # Energy for refresh commands per rank (pJ)
system.mem_ctrls1_1.actBackEnergy         95244783270                       # Energy for active background per rank (pJ)
system.mem_ctrls1_1.preBackEnergy          5165181120                       # Energy for precharge background per rank (pJ)
system.mem_ctrls1_1.actPowerDownEnergy   548018079390                       # Energy for active power-down per rank (pJ)
system.mem_ctrls1_1.prePowerDownEnergy   108673285440                       # Energy for precharge power-down per rank (pJ)
system.mem_ctrls1_1.selfRefreshEnergy     40779295695                       # Energy for self refresh per rank (pJ)
system.mem_ctrls1_1.totalEnergy          975622446540                       # Total energy per rank (pJ)
system.mem_ctrls1_1.averagePower           529.329471                       # Core power per rank (mW)
system.mem_ctrls1_1.totalIdleTime        1620740347138                       # Total Idle time Per DRAM Rank
system.mem_ctrls1_1.memoryStateTime::IDLE   5407254324                       # Time in different power states
system.mem_ctrls1_1.memoryStateTime::REF  60659662000                       # Time in different power states
system.mem_ctrls1_1.memoryStateTime::SREF 135935393301                       # Time in different power states
system.mem_ctrls1_1.memoryStateTime::PRE_PDN 283006924747                       # Time in different power states
system.mem_ctrls1_1.memoryStateTime::ACT 156321006403                       # Time in different power states
system.mem_ctrls1_1.memoryStateTime::ACT_PDN 1201798648362                       # Time in different power states
system.pwrStateResidencyTicks::UNDEFINED 75113282689839                       # Cumulative time (in ticks) in various power states
system.cpu.branchPred.lookups                       2                       # Number of BP lookups
system.cpu.branchPred.condPredicted                 2                       # Number of conditional branches predicted
system.cpu.branchPred.condIncorrect                 1                       # Number of conditional branches incorrect
system.cpu.branchPred.BTBLookups                    0                       # Number of BTB lookups
system.cpu.branchPred.BTBHits                       0                       # Number of BTB hits
system.cpu.branchPred.BTBCorrect                    0                       # Number of correct BTB predictions (this stat may not work properly.
system.cpu.branchPred.BTBHitPct                   nan                       # BTB Hit Percentage
system.cpu.branchPred.usedRAS                       0                       # Number of times the RAS was used to get a target.
system.cpu.branchPred.RASInCorrect                  0                       # Number of incorrect RAS predictions.
system.cpu.branchPred.indirectLookups               0                       # Number of indirect predictor lookups.
system.cpu.branchPred.indirectHits                  0                       # Number of indirect target hits.
system.cpu.branchPred.indirectMisses                0                       # Number of indirect misses.
system.cpu.branchPredindirectMispredicted            0                       # Number of mispredicted indirect branches.
system.cpu_voltage_domain.voltage                   1                       # Voltage in Volts
system.cpu_clk_domain.clock                       333                       # Clock period in ticks
system.cpu.dtb.fetch_hits                           0                       # ITB hits
system.cpu.dtb.fetch_misses                         0                       # ITB misses
system.cpu.dtb.fetch_acv                            0                       # ITB acv
system.cpu.dtb.fetch_accesses                       0                       # ITB accesses
system.cpu.dtb.read_hits                           23                       # DTB read hits
system.cpu.dtb.read_misses                          0                       # DTB read misses
system.cpu.dtb.read_acv                             0                       # DTB read access violations
system.cpu.dtb.read_accesses                       23                       # DTB read accesses
system.cpu.dtb.write_hits                           3                       # DTB write hits
system.cpu.dtb.write_misses                         0                       # DTB write misses
system.cpu.dtb.write_acv                            0                       # DTB write access violations
system.cpu.dtb.write_accesses                       3                       # DTB write accesses
system.cpu.dtb.data_hits                           26                       # DTB hits
system.cpu.dtb.data_misses                          0                       # DTB misses
system.cpu.dtb.data_acv                             0                       # DTB access violations
system.cpu.dtb.data_accesses                       26                       # DTB accesses
system.cpu.itb.fetch_hits                           7                       # ITB hits
system.cpu.itb.fetch_misses                         0                       # ITB misses
system.cpu.itb.fetch_acv                            0                       # ITB acv
system.cpu.itb.fetch_accesses                       7                       # ITB accesses
system.cpu.itb.read_hits                            0                       # DTB read hits
system.cpu.itb.read_misses                          0                       # DTB read misses
system.cpu.itb.read_acv                             0                       # DTB read access violations
system.cpu.itb.read_accesses                        0                       # DTB read accesses
system.cpu.itb.write_hits                           0                       # DTB write hits
system.cpu.itb.write_misses                         0                       # DTB write misses
system.cpu.itb.write_acv                            0                       # DTB write access violations
system.cpu.itb.write_accesses                       0                       # DTB write accesses
system.cpu.itb.data_hits                            0                       # DTB hits
system.cpu.itb.data_misses                          0                       # DTB misses
system.cpu.itb.data_acv                             0                       # DTB access violations
system.cpu.itb.data_accesses                        0                       # DTB accesses
system.cpu.workload.num_syscalls                    0                       # Number of system calls
system.cpu.pwrStateResidencyTicks::ON    1843128889137                       # Cumulative time (in ticks) in various power states
system.cpu.numCycles                              871                       # number of cpu cycles simulated
system.cpu.numWorkItemsStarted                      0                       # number of work items this cpu started
system.cpu.numWorkItemsCompleted                    0                       # number of work items this cpu completed
system.cpu.fetch.icacheStallCycles                 62                       # Number of cycles fetch is stalled on an Icache miss
system.cpu.fetch.Insts                             51                       # Number of instructions fetch has processed
system.cpu.fetch.Branches                           2                       # Number of branches that fetch encountered
system.cpu.fetch.Cycles                             7                       # Number of cycles fetch has run and was not squashing or blocked
system.cpu.fetch.SquashCycles                       5                       # Number of cycles fetch has spent squashing
system.cpu.fetch.PendingDrainCycles                10                       # Number of cycles fetch has spent waiting on pipes to drain
system.cpu.fetch.CacheLines                         7                       # Number of cache lines fetched
system.cpu.fetch.IcacheSquashes                     3                       # Number of outstanding Icache misses that were squashed
system.cpu.fetch.rateDist::samples                 81                       # Number of instructions fetched each cycle (Total)
system.cpu.fetch.rateDist::mean              0.629630                       # Number of instructions fetched each cycle (Total)
system.cpu.fetch.rateDist::stdev             2.100265                       # Number of instructions fetched each cycle (Total)
system.cpu.fetch.rateDist::underflows               0      0.00%      0.00% # Number of instructions fetched each cycle (Total)
system.cpu.fetch.rateDist::0                       74     91.36%     91.36% # Number of instructions fetched each cycle (Total)
system.cpu.fetch.rateDist::1                        0      0.00%     91.36% # Number of instructions fetched each cycle (Total)
system.cpu.fetch.rateDist::2                        0      0.00%     91.36% # Number of instructions fetched each cycle (Total)
system.cpu.fetch.rateDist::3                        0      0.00%     91.36% # Number of instructions fetched each cycle (Total)
system.cpu.fetch.rateDist::4                        1      1.23%     92.59% # Number of instructions fetched each cycle (Total)
[...]
system.switch_cpus_1.iq.int_inst_queue_writes    292520130                       # Number of integer instruction queue writes
system.switch_cpus_1.iq.int_inst_queue_wakeup_accesses    286452823                       # Number of integer instruction queue wakeup accesses
system.switch_cpus_1.iq.fp_inst_queue_reads    281321455                       # Number of floating instruction queue reads
system.switch_cpus_1.iq.fp_inst_queue_writes    122071346                       # Number of floating instruction queue writes
system.switch_cpus_1.iq.fp_inst_queue_wakeup_accesses    118676503                       # Number of floating instruction queue wakeup accesses
system.switch_cpus_1.iq.int_alu_accesses    315830037                       # Number of integer alu accesses
system.switch_cpus_1.iq.fp_alu_accesses     150683791                       # Number of floating point alu accesses
system.switch_cpus_1.iew.lsq.thread0.forwLoads      2448225                       # Number of loads that had data forwarded from stores
system.switch_cpus_1.iew.lsq.thread0.invAddrLoads            0                       # Number of loads ignored due to an invalid address
system.switch_cpus_1.iew.lsq.thread0.squashedLoads      2681463                       # Number of loads squashed
system.switch_cpus_1.iew.lsq.thread0.ignoredResponses         1716                       # Number of memory responses ignored because the instruction is squashed
system.switch_cpus_1.iew.lsq.thread0.memOrderViolation          607                       # Number of memory ordering violations
system.switch_cpus_1.iew.lsq.thread0.squashedStores       396068                       # Number of stores squashed
system.switch_cpus_1.iew.lsq.thread0.invAddrSwpfs            0                       # Number of software prefetches ignored due to an invalid address
system.switch_cpus_1.iew.lsq.thread0.blockedLoads            0                       # Number of blocked loads due to partial load-store forwarding
system.switch_cpus_1.iew.lsq.thread0.rescheduledLoads            0                       # Number of loads that were rescheduled
system.switch_cpus_1.iew.lsq.thread0.cacheBlocked     20515296                       # Number of times an access to memory failed due to the cache being blocked
system.switch_cpus_1.iew.iewIdleCycles              0                       # Number of cycles IEW is idle
system.switch_cpus_1.iew.iewSquashCycles       150789                       # Number of cycles IEW is squashing
system.switch_cpus_1.iew.iewBlockCycles      27079786                       # Number of cycles IEW is blocking
system.switch_cpus_1.iew.iewUnblockCycles     48706150                       # Number of cycles IEW is unblocking
system.switch_cpus_1.iew.iewDispatchedInsts    407438924                       # Number of instructions dispatched to IQ
system.switch_cpus_1.iew.iewDispSquashedInsts       106157                       # Number of squashed instructions skipped by dispatch
system.switch_cpus_1.iew.iewDispLoadInsts    139585939                       # Number of dispatched load instructions
system.switch_cpus_1.iew.iewDispStoreInsts     19515059                       # Number of dispatched store instructions
system.switch_cpus_1.iew.iewDispNonSpecInsts           86                       # Number of dispatched non-speculative instructions
system.switch_cpus_1.iew.iewIQFullEvents       326706                       # Number of times the IQ has become full, causing a stall
system.switch_cpus_1.iew.iewLSQFullEvents     48052197                       # Number of times the LSQ has become full, causing a stall
system.switch_cpus_1.iew.memOrderViolationEvents          607                       # Number of memory order violations
system.switch_cpus_1.iew.predictedTakenIncorrect        83686                       # Number of branches that were predicted taken incorrectly
system.switch_cpus_1.iew.predictedNotTakenIncorrect         1284                       # Number of branches that were predicted not taken incorrectly
system.switch_cpus_1.iew.branchMispredicts        84970                       # Number of branch mispredicts detected at execute
system.switch_cpus_1.iew.iewExecutedInsts    425792071                       # Number of executed instructions
system.switch_cpus_1.iew.iewExecLoadInsts    159382564                       # Number of load instructions executed
system.switch_cpus_1.iew.iewExecSquashedInsts       213250                       # Number of squashed instructions skipped in execute
system.switch_cpus_1.iew.exec_swp                   0                       # number of swp insts executed
system.switch_cpus_1.iew.exec_nop              143454                       # number of nop insts executed
system.switch_cpus_1.iew.exec_refs          178622577                       # number of memory reference insts executed
system.switch_cpus_1.iew.exec_branches        9777552                       # Number of branches executed
system.switch_cpus_1.iew.exec_stores         19240013                       # Number of stores executed
system.switch_cpus_1.iew.exec_rate           0.987675                       # Inst execution rate
system.switch_cpus_1.iew.wb_sent            405478020                       # cumulative count of insts sent to commit
system.switch_cpus_1.iew.wb_count           405129326                       # cumulative count of insts written-back
system.switch_cpus_1.iew.wb_producers       281564681                       # num instructions producing a value
system.switch_cpus_1.iew.wb_consumers       309469185                       # num instructions consuming a value
system.switch_cpus_1.iew.wb_rate             0.939745                       # insts written-back per cycle
system.switch_cpus_1.iew.wb_fanout           0.909831                       # average fanout of values written-back
system.switch_cpus_1.commit.commitSquashedInsts      6728840                       # The number of squashed insts skipped by commit
system.switch_cpus_1.commit.commitNonSpecStalls          144                       # The number of times commit has been forced to stall to communicate backwards
system.switch_cpus_1.commit.branchMispredicts        84648                       # The number of times a branch was mispredicted
system.switch_cpus_1.commit.committed_per_cycle::samples    430178073                       # Number of insts commited each cycle
system.switch_cpus_1.commit.committed_per_cycle::mean     0.930138                       # Number of insts commited each cycle
system.switch_cpus_1.commit.committed_per_cycle::stdev     2.401220                       # Number of insts commited each cycle
system.switch_cpus_1.commit.committed_per_cycle::underflows            0      0.00%      0.00% # Number of insts commited each cycle
system.switch_cpus_1.commit.committed_per_cycle::0    358329675     83.30%     83.30% # Number of insts commited each cycle
system.switch_cpus_1.commit.committed_per_cycle::1     15129112      3.52%     86.81% # Number of insts commited each cycle
system.switch_cpus_1.commit.committed_per_cycle::2      3363975      0.78%     87.60% # Number of insts commited each cycle
system.switch_cpus_1.commit.committed_per_cycle::3      3596896      0.84%     88.43% # Number of insts commited each cycle
system.switch_cpus_1.commit.committed_per_cycle::4      3962106      0.92%     89.35% # Number of insts commited each cycle
system.switch_cpus_1.commit.committed_per_cycle::5      2317226      0.54%     89.89% # Number of insts commited each cycle
system.switch_cpus_1.commit.committed_per_cycle::6      2213365      0.51%     90.41% # Number of insts commited each cycle
system.switch_cpus_1.commit.committed_per_cycle::7      3363397      0.78%     91.19% # Number of insts commited each cycle
system.switch_cpus_1.commit.committed_per_cycle::8     37902321      8.81%    100.00% # Number of insts commited each cycle
system.switch_cpus_1.commit.committed_per_cycle::overflows            0      0.00%    100.00% # Number of insts commited each cycle
system.switch_cpus_1.commit.committed_per_cycle::min_value            0                       # Number of insts commited each cycle
system.switch_cpus_1.commit.committed_per_cycle::max_value            8                       # Number of insts commited each cycle
system.switch_cpus_1.commit.committed_per_cycle::total    430178073                       # Number of insts commited each cycle
system.switch_cpus_1.commit.committedInsts    400124841                       # Number of instructions committed
system.switch_cpus_1.commit.committedOps    400124841                       # Number of ops (including micro ops) committed
system.switch_cpus_1.commit.swp_count               0                       # Number of s/w prefetches committed
system.switch_cpus_1.commit.refs            156023447                       # Number of memory references committed
system.switch_cpus_1.commit.loads           136904460                       # Number of loads committed
system.switch_cpus_1.commit.membars                72                       # Number of memory barriers committed
system.switch_cpus_1.commit.branches          9544773                       # Number of branches committed
system.switch_cpus_1.commit.fp_insts        117875785                       # Number of committed floating point instructions.
system.switch_cpus_1.commit.int_insts       341019267                       # Number of committed integer instructions.
system.switch_cpus_1.commit.function_calls           74                       # Number of function calls committed.
system.switch_cpus_1.commit.op_class_0::No_OpClass       124841      0.03%      0.03% # Class of committed instruction
system.switch_cpus_1.commit.op_class_0::IntAlu    136727420     34.17%     34.20% # Class of committed instruction
system.switch_cpus_1.commit.op_class_0::IntMult     48297061     12.07%     46.27% # Class of committed instruction
system.switch_cpus_1.commit.op_class_0::IntDiv            0      0.00%     46.27% # Class of committed instruction
system.switch_cpus_1.commit.op_class_0::FloatAdd     29431117      7.36%     53.63% # Class of committed instruction
system.switch_cpus_1.commit.op_class_0::FloatCmp            0      0.00%     53.63% # Class of committed instruction
system.switch_cpus_1.commit.op_class_0::FloatCvt         6462      0.00%     53.63% # Class of committed instruction
system.switch_cpus_1.commit.op_class_0::FloatMult     27216661      6.80%     60.43% # Class of committed instruction
system.switch_cpus_1.commit.op_class_0::FloatMultAcc            0      0.00%     60.43% # Class of committed instruction
system.switch_cpus_1.commit.op_class_0::FloatDiv      1910040      0.48%     60.91% # Class of committed instruction
system.switch_cpus_1.commit.op_class_0::FloatMisc            0      0.00%     60.91% # Class of committed instruction
system.switch_cpus_1.commit.op_class_0::FloatSqrt       387720      0.10%     61.01% # Class of committed instruction
system.switch_cpus_1.commit.op_class_0::SimdAdd            0      0.00%     61.01% # Class of committed instruction
system.switch_cpus_1.commit.op_class_0::SimdAddAcc            0      0.00%     61.01% # Class of committed instruction
system.switch_cpus_1.commit.op_class_0::SimdAlu            0      0.00%     61.01% # Class of committed instruction
system.switch_cpus_1.commit.op_class_0::SimdCmp            0      0.00%     61.01% # Class of committed instruction
system.switch_cpus_1.commit.op_class_0::SimdCvt            0      0.00%     61.01% # Class of committed instruction
system.switch_cpus_1.commit.op_class_0::SimdMisc            0      0.00%     61.01% # Class of committed instruction
system.switch_cpus_1.commit.op_class_0::SimdMult            0      0.00%     61.01% # Class of committed instruction
system.switch_cpus_1.commit.op_class_0::SimdMultAcc            0      0.00%     61.01% # Class of committed instruction
system.switch_cpus_1.commit.op_class_0::SimdShift            0      0.00%     61.01% # Class of committed instruction
system.switch_cpus_1.commit.op_class_0::SimdShiftAcc            0      0.00%     61.01% # Class of committed instruction
system.switch_cpus_1.commit.op_class_0::SimdSqrt            0      0.00%     61.01% # Class of committed instruction
system.switch_cpus_1.commit.op_class_0::SimdFloatAdd            0      0.00%     61.01% # Class of committed instruction
system.switch_cpus_1.commit.op_class_0::SimdFloatAlu            0      0.00%     61.01% # Class of committed instruction
system.switch_cpus_1.commit.op_class_0::SimdFloatCmp            0      0.00%     61.01% # Class of committed instruction
system.switch_cpus_1.commit.op_class_0::SimdFloatCvt            0      0.00%     61.01% # Class of committed instruction
system.switch_cpus_1.commit.op_class_0::SimdFloatDiv            0      0.00%     61.01% # Class of committed instruction
system.switch_cpus_1.commit.op_class_0::SimdFloatMisc            0      0.00%     61.01% # Class of committed instruction
system.switch_cpus_1.commit.op_class_0::SimdFloatMult            0      0.00%     61.01% # Class of committed instruction
system.switch_cpus_1.commit.op_class_0::SimdFloatMultAcc            0      0.00%     61.01% # Class of committed instruction
system.switch_cpus_1.commit.op_class_0::SimdFloatSqrt            0      0.00%     61.01% # Class of committed instruction
system.switch_cpus_1.commit.op_class_0::MemRead     91474971     22.86%     83.87% # Class of committed instruction
system.switch_cpus_1.commit.op_class_0::MemWrite      5624763      1.41%     85.27% # Class of committed instruction
system.switch_cpus_1.commit.op_class_0::FloatMemRead     45429561     11.35%     96.63% # Class of committed instruction
system.switch_cpus_1.commit.op_class_0::FloatMemWrite     13494224      3.37%    100.00% # Class of committed instruction
system.switch_cpus_1.commit.op_class_0::IprAccess            0      0.00%    100.00% # Class of committed instruction
system.switch_cpus_1.commit.op_class_0::InstPrefetch            0      0.00%    100.00% # Class of committed instruction
system.switch_cpus_1.commit.op_class_0::total    400124841                       # Class of committed instruction
system.switch_cpus_1.commit.bw_lim_events     37902321                       # number cycles where commit BW limit reached
system.switch_cpus_1.rob.rob_reads          798276659                       # The number of ROB reads
system.switch_cpus_1.rob.rob_writes         814612809                       # The number of ROB writes
system.switch_cpus_1.timesIdled                   201                       # Number of times that the entire CPU went into an idle state and unscheduled itself
system.switch_cpus_1.idleCycles                 22142                       # Total number of cycles that the CPU has spent unscheduled due to idling
system.switch_cpus_1.committedInsts         400000000                       # Number of Instructions Simulated
system.switch_cpus_1.committedOps           400000000                       # Number of Ops (including micro ops) Simulated
system.switch_cpus_1.cpi                     1.077764                       # CPI: Cycles Per Instruction
system.switch_cpus_1.cpi_total               1.077764                       # CPI: Total CPI of All Threads
system.switch_cpus_1.ipc                     0.927847                       # IPC: Instructions Per Cycle
system.switch_cpus_1.ipc_total               0.927847                       # IPC: Total IPC of All Threads
system.switch_cpus_1.int_regfile_reads      521717306                       # number of integer regfile reads
system.switch_cpus_1.int_regfile_writes     271053560                       # number of integer regfile writes
system.switch_cpus_1.fp_regfile_reads       131700262                       # number of floating regfile reads
system.switch_cpus_1.fp_regfile_writes      105166755                       # number of floating regfile writes
system.switch_cpus_1.misc_regfile_reads           162                       # number of misc regfile reads
system.switch_cpus_1.misc_regfile_writes          144                       # number of misc regfile writes
system.tol3bus.snoop_filter.tot_requests     23945821                       # Total number of requests made to the snoop filter.
system.tol3bus.snoop_filter.hit_single_requests     11970588                       # Number of requests hitting in the snoop filter with a single holder of the requested data.
system.tol3bus.snoop_filter.hit_multi_requests            0                       # Number of requests hitting in the snoop filter with multiple (>1) holders of the requested data.
system.tol3bus.snoop_filter.tot_snoops          65970                       # Total number of snoops made to the snoop filter.
system.tol3bus.snoop_filter.hit_single_snoops        65970                       # Number of snoops hitting in the snoop filter with a single holder of the requested data.
system.tol3bus.snoop_filter.hit_multi_snoops            0                       # Number of snoops hitting in the snoop filter with multiple (>1) holders of the requested data.
system.tol3bus.pwrStateResidencyTicks::UNDEFINED 75113282689839                       # Cumulative time (in ticks) in various power states
system.tol3bus.trans_dist::ReadResp           9409780                       # Transaction distribution
system.tol3bus.trans_dist::WritebackDirty      6520544                       # Transaction distribution
system.tol3bus.trans_dist::CleanEvict        14686498                       # Transaction distribution
system.tol3bus.trans_dist::ReadExReq          2565453                       # Transaction distribution
system.tol3bus.trans_dist::ReadExResp         2565453                       # Transaction distribution
system.tol3bus.trans_dist::ReadSharedReq      9409780                       # Transaction distribution
system.tol3bus.pkt_count_system.cpu.l2.mem_side::system.l3.cpu_side     35921054                       # Packet count per connected master and slave (bytes)
system.tol3bus.pkt_size_system.cpu.l2.mem_side::system.l3.cpu_side    997464576                       # Cumulative packet size per connected master and slave (bytes)
system.tol3bus.snoops                         9236454                       # Total snoops (count)
system.tol3bus.snoopTraffic                 186265152                       # Total snoop traffic (bytes)
system.tol3bus.snoop_fanout::samples         21211687                       # Request fanout histogram
system.tol3bus.snoop_fanout::mean            0.003110                       # Request fanout histogram
system.tol3bus.snoop_fanout::stdev           0.055681                       # Request fanout histogram
system.tol3bus.snoop_fanout::underflows             0      0.00%      0.00% # Request fanout histogram
system.tol3bus.snoop_fanout::0               21145717     99.69%     99.69% # Request fanout histogram
system.tol3bus.snoop_fanout::1                  65970      0.31%    100.00% # Request fanout histogram
system.tol3bus.snoop_fanout::overflows              0      0.00%    100.00% # Request fanout histogram
system.tol3bus.snoop_fanout::min_value              0                       # Request fanout histogram
system.tol3bus.snoop_fanout::max_value              1                       # Request fanout histogram
system.tol3bus.snoop_fanout::total           21211687                       # Request fanout histogram
system.tol3bus.reqLayer0.occupancy         9176138676                       # Layer occupancy (ticks)
system.tol3bus.reqLayer0.utilization              0.5                       # Layer utilization (%)
system.tol3bus.respLayer0.occupancy        7975505178                       # Layer occupancy (ticks)
system.tol3bus.respLayer0.utilization             0.4                       # Layer utilization (%)

---------- End Simulation Statistics   ----------
