
---------- Begin Simulation Statistics ----------
sim_seconds                                  3.804452                       # Number of seconds simulated
sim_ticks                                3804452366373                       # Number of ticks simulated
final_tick                               147281440683447                       # Number of ticks from beginning of simulation (restored from checkpoints and never reset)
sim_freq                                 1000000000000                       # Frequency of simulated ticks
host_inst_rate                                 263076                       # Simulator instruction rate (inst/s)
host_op_rate                                   263076                       # Simulator op (including micro ops) rate (op/s)
host_tick_rate                              834049500                       # Simulator tick rate (ticks/s)
host_mem_usage                                2541820                       # Number of bytes of host memory used
host_seconds                                  4561.42                       # Real time elapsed on the host
sim_insts                                  1200000006                       # Number of instructions simulated
sim_ops                                    1200000006                       # Number of ops (including micro ops) simulated
system.voltage_domain.voltage                       1                       # Voltage in Volts
system.clk_domain.clock                          1000                       # Clock period in ticks
system.mem_ctrls0.pwrStateResidencyTicks::UNDEFINED 147281440683447                       # Cumulative time (in ticks) in various power states
system.mem_ctrls0.bytes_read::cpu.inst            128                       # Number of bytes read from this memory
system.mem_ctrls0.bytes_read::cpu.data            256                       # Number of bytes read from this memory
system.mem_ctrls0.bytes_read::switch_cpus.inst        20864                       # Number of bytes read from this memory
system.mem_ctrls0.bytes_read::switch_cpus.data    477819456                       # Number of bytes read from this memory
system.mem_ctrls0.bytes_read::switch_cpus_1.inst         6656                       # Number of bytes read from this memory
system.mem_ctrls0.bytes_read::switch_cpus_1.data     84868736                       # Number of bytes read from this memory
system.mem_ctrls0.bytes_read::total         562716096                       # Number of bytes read from this memory
system.mem_ctrls0.bytes_inst_read::cpu.inst          128                       # Number of instructions bytes read from this memory
system.mem_ctrls0.bytes_inst_read::switch_cpus.inst        20864                       # Number of instructions bytes read from this memory
system.mem_ctrls0.bytes_inst_read::switch_cpus_1.inst         6656                       # Number of instructions bytes read from this memory
system.mem_ctrls0.bytes_inst_read::total        27648                       # Number of instructions bytes read from this memory
system.mem_ctrls0.bytes_written::writebacks    280547712                       # Number of bytes written to this memory
system.mem_ctrls0.bytes_written::total      280547712                       # Number of bytes written to this memory
system.mem_ctrls0.num_reads::cpu.inst               2                       # Number of read requests responded to by this memory
system.mem_ctrls0.num_reads::cpu.data               4                       # Number of read requests responded to by this memory
system.mem_ctrls0.num_reads::switch_cpus.inst          326                       # Number of read requests responded to by this memory
system.mem_ctrls0.num_reads::switch_cpus.data      7465929                       # Number of read requests responded to by this memory
system.mem_ctrls0.num_reads::switch_cpus_1.inst          104                       # Number of read requests responded to by this memory
system.mem_ctrls0.num_reads::switch_cpus_1.data      1326074                       # Number of read requests responded to by this memory
system.mem_ctrls0.num_reads::total            8792439                       # Number of read requests responded to by this memory
system.mem_ctrls0.num_writes::writebacks      4383558                       # Number of write requests responded to by this memory
system.mem_ctrls0.num_writes::total           4383558                       # Number of write requests responded to by this memory
system.mem_ctrls0.bw_read::cpu.inst                34                       # Total read bandwidth from this memory (bytes/s)
system.mem_ctrls0.bw_read::cpu.data                67                       # Total read bandwidth from this memory (bytes/s)
system.mem_ctrls0.bw_read::switch_cpus.inst         5484                       # Total read bandwidth from this memory (bytes/s)
system.mem_ctrls0.bw_read::switch_cpus.data    125594806                       # Total read bandwidth from this memory (bytes/s)
system.mem_ctrls0.bw_read::switch_cpus_1.inst         1750                       # Total read bandwidth from this memory (bytes/s)
system.mem_ctrls0.bw_read::switch_cpus_1.data     22307740                       # Total read bandwidth from this memory (bytes/s)
system.mem_ctrls0.bw_read::total            147909881                       # Total read bandwidth from this memory (bytes/s)
system.mem_ctrls0.bw_inst_read::cpu.inst           34                       # Instruction read bandwidth from this memory (bytes/s)
system.mem_ctrls0.bw_inst_read::switch_cpus.inst         5484                       # Instruction read bandwidth from this memory (bytes/s)
system.mem_ctrls0.bw_inst_read::switch_cpus_1.inst         1750                       # Instruction read bandwidth from this memory (bytes/s)
system.mem_ctrls0.bw_inst_read::total            7267                       # Instruction read bandwidth from this memory (bytes/s)
system.mem_ctrls0.bw_write::writebacks       73741944                       # Write bandwidth from this memory (bytes/s)
system.mem_ctrls0.bw_write::total            73741944                       # Write bandwidth from this memory (bytes/s)
system.mem_ctrls0.bw_total::writebacks       73741944                       # Total bandwidth to/from this memory (bytes/s)
system.mem_ctrls0.bw_total::cpu.inst               34                       # Total bandwidth to/from this memory (bytes/s)
system.mem_ctrls0.bw_total::cpu.data               67                       # Total bandwidth to/from this memory (bytes/s)
system.mem_ctrls0.bw_total::switch_cpus.inst         5484                       # Total bandwidth to/from this memory (bytes/s)
system.mem_ctrls0.bw_total::switch_cpus.data    125594806                       # Total bandwidth to/from this memory (bytes/s)
system.mem_ctrls0.bw_total::switch_cpus_1.inst         1750                       # Total bandwidth to/from this memory (bytes/s)
system.mem_ctrls0.bw_total::switch_cpus_1.data     22307740                       # Total bandwidth to/from this memory (bytes/s)
system.mem_ctrls0.bw_total::total           221651824                       # Total bandwidth to/from this memory (bytes/s)
system.mem_ctrls0.readReqs                    8792439                       # Number of read requests accepted
system.mem_ctrls0.writeReqs                   4383558                       # Number of write requests accepted
system.mem_ctrls0.readBursts                  8792439                       # Number of DRAM read bursts, including those serviced by the write queue
system.mem_ctrls0.writeBursts                 4383558                       # Number of DRAM write bursts, including those merged in the write queue
system.mem_ctrls0.bytesReadDRAM             562715456                       # Total number of bytes read from DRAM
system.mem_ctrls0.bytesReadWrQ                    640                       # Total number of bytes read from write queue
system.mem_ctrls0.bytesWritten              280545856                       # Total number of bytes written to DRAM
system.mem_ctrls0.bytesReadSys              562716096                       # Total read bytes from the system interface side
system.mem_ctrls0.bytesWrittenSys           280547712                       # Total written bytes from the system interface side
system.mem_ctrls0.servicedByWrQ                    10                       # Number of DRAM read bursts serviced by the write queue
system.mem_ctrls0.mergedWrBursts                    0                       # Number of DRAM write bursts merged with an existing one
system.mem_ctrls0.neitherReadNorWriteReqs            0                       # Number of requests that are neither read nor write
system.mem_ctrls0.perBankRdBursts::0           548898                       # Per bank write bursts
system.mem_ctrls0.perBankRdBursts::1           548384                       # Per bank write bursts
system.mem_ctrls0.perBankRdBursts::2           549720                       # Per bank write bursts
system.mem_ctrls0.perBankRdBursts::3           551059                       # Per bank write bursts
system.mem_ctrls0.perBankRdBursts::4           550549                       # Per bank write bursts
system.mem_ctrls0.perBankRdBursts::5           548880                       # Per bank write bursts
system.mem_ctrls0.perBankRdBursts::6           549072                       # Per bank write bursts
system.mem_ctrls0.perBankRdBursts::7           549900                       # Per bank write bursts
system.mem_ctrls0.perBankRdBursts::8           550585                       # Per bank write bursts
system.mem_ctrls0.perBankRdBursts::9           548522                       # Per bank write bursts
system.mem_ctrls0.perBankRdBursts::10          547257                       # Per bank write bursts
system.mem_ctrls0.perBankRdBursts::11          549188                       # Per bank write bursts
system.mem_ctrls0.perBankRdBursts::12          550062                       # Per bank write bursts
system.mem_ctrls0.perBankRdBursts::13          550594                       # Per bank write bursts
system.mem_ctrls0.perBankRdBursts::14          550614                       # Per bank write bursts
system.mem_ctrls0.perBankRdBursts::15          549145                       # Per bank write bursts
system.mem_ctrls0.perBankWrBursts::0           275448                       # Per bank write bursts
system.mem_ctrls0.perBankWrBursts::1           273958                       # Per bank write bursts
system.mem_ctrls0.perBankWrBursts::2           273379                       # Per bank write bursts
system.mem_ctrls0.perBankWrBursts::3           274101                       # Per bank write bursts
system.mem_ctrls0.perBankWrBursts::4           274225                       # Per bank write bursts
system.mem_ctrls0.perBankWrBursts::5           274058                       # Per bank write bursts
system.mem_ctrls0.perBankWrBursts::6           273911                       # Per bank write bursts
system.mem_ctrls0.perBankWrBursts::7           273439                       # Per bank write bursts
system.mem_ctrls0.perBankWrBursts::8           273193                       # Per bank write bursts
system.mem_ctrls0.perBankWrBursts::9           272919                       # Per bank write bursts
system.mem_ctrls0.perBankWrBursts::10          273845                       # Per bank write bursts
system.mem_ctrls0.perBankWrBursts::11          275417                       # Per bank write bursts
system.mem_ctrls0.perBankWrBursts::12          274269                       # Per bank write bursts
system.mem_ctrls0.perBankWrBursts::13          273048                       # Per bank write bursts
system.mem_ctrls0.perBankWrBursts::14          273441                       # Per bank write bursts
system.mem_ctrls0.perBankWrBursts::15          274878                       # Per bank write bursts
system.mem_ctrls0.numRdRetry                        0                       # Number of times read queue was full causing retry
system.mem_ctrls0.numWrRetry                        0                       # Number of times write queue was full causing retry
system.mem_ctrls0.totGap                 3804452266806                       # Total gap between requests
system.mem_ctrls0.readPktSize::0                    0                       # Read request sizes (log2)
system.mem_ctrls0.readPktSize::1                    0                       # Read request sizes (log2)
system.mem_ctrls0.readPktSize::2                    0                       # Read request sizes (log2)
system.mem_ctrls0.readPktSize::3                    0                       # Read request sizes (log2)
system.mem_ctrls0.readPktSize::4                    0                       # Read request sizes (log2)
system.mem_ctrls0.readPktSize::5                    0                       # Read request sizes (log2)
system.mem_ctrls0.readPktSize::6              8792439                       # Read request sizes (log2)
system.mem_ctrls0.writePktSize::0                   0                       # Write request sizes (log2)
system.mem_ctrls0.writePktSize::1                   0                       # Write request sizes (log2)
system.mem_ctrls0.writePktSize::2                   0                       # Write request sizes (log2)
system.mem_ctrls0.writePktSize::3                   0                       # Write request sizes (log2)
system.mem_ctrls0.writePktSize::4                   0                       # Write request sizes (log2)
system.mem_ctrls0.writePktSize::5                   0                       # Write request sizes (log2)
system.mem_ctrls0.writePktSize::6             4383558                       # Write request sizes (log2)
system.mem_ctrls0.rdQLenPdf::0                8362331                       # What read queue length does an incoming req see
system.mem_ctrls0.rdQLenPdf::1                 318406                       # What read queue length does an incoming req see
system.mem_ctrls0.rdQLenPdf::2                  98163                       # What read queue length does an incoming req see
system.mem_ctrls0.rdQLenPdf::3                  13529                       # What read queue length does an incoming req see
system.mem_ctrls0.rdQLenPdf::4                      0                       # What read queue length does an incoming req see
system.mem_ctrls0.rdQLenPdf::5                      0                       # What read queue length does an incoming req see
system.mem_ctrls0.rdQLenPdf::6                      0                       # What read queue length does an incoming req see
system.mem_ctrls0.rdQLenPdf::7                      0                       # What read queue length does an incoming req see
system.mem_ctrls0.rdQLenPdf::8                      0                       # What read queue length does an incoming req see
system.mem_ctrls0.rdQLenPdf::9                      0                       # What read queue length does an incoming req see
system.mem_ctrls0.rdQLenPdf::10                     0                       # What read queue length does an incoming req see
system.mem_ctrls0.rdQLenPdf::11                     0                       # What read queue length does an incoming req see
system.mem_ctrls0.rdQLenPdf::12                     0                       # What read queue length does an incoming req see
system.mem_ctrls0.rdQLenPdf::13                     0                       # What read queue length does an incoming req see
system.mem_ctrls0.rdQLenPdf::14                     0                       # What read queue length does an incoming req see
system.mem_ctrls0.rdQLenPdf::15                     0                       # What read queue length does an incoming req see
system.mem_ctrls0.rdQLenPdf::16                     0                       # What read queue length does an incoming req see
system.mem_ctrls0.rdQLenPdf::17                     0                       # What read queue length does an incoming req see
system.mem_ctrls0.rdQLenPdf::18                     0                       # What read queue length does an incoming req see
system.mem_ctrls0.rdQLenPdf::19                     0                       # What read queue length does an incoming req see
system.mem_ctrls0.rdQLenPdf::20                     0                       # What read queue length does an incoming req see
system.mem_ctrls0.rdQLenPdf::21                     0                       # What read queue length does an incoming req see
system.mem_ctrls0.rdQLenPdf::22                     0                       # What read queue length does an incoming req see
system.mem_ctrls0.rdQLenPdf::23                     0                       # What read queue length does an incoming req see
system.mem_ctrls0.rdQLenPdf::24                     0                       # What read queue length does an incoming req see
system.mem_ctrls0.rdQLenPdf::25                     0                       # What read queue length does an incoming req see
system.mem_ctrls0.rdQLenPdf::26                     0                       # What read queue length does an incoming req see
system.mem_ctrls0.rdQLenPdf::27                     0                       # What read queue length does an incoming req see
system.mem_ctrls0.rdQLenPdf::28                     0                       # What read queue length does an incoming req see
system.mem_ctrls0.rdQLenPdf::29                     0                       # What read queue length does an incoming req see
system.mem_ctrls0.rdQLenPdf::30                     0                       # What read queue length does an incoming req see
system.mem_ctrls0.rdQLenPdf::31                     0                       # What read queue length does an incoming req see
system.mem_ctrls0.wrQLenPdf::0                      2                       # What write queue length does an incoming req see
system.mem_ctrls0.wrQLenPdf::1                      2                       # What write queue length does an incoming req see
system.mem_ctrls0.wrQLenPdf::2                      2                       # What write queue length does an incoming req see
system.mem_ctrls0.wrQLenPdf::3                      2                       # What write queue length does an incoming req see
system.mem_ctrls0.wrQLenPdf::4                      2                       # What write queue length does an incoming req see
system.mem_ctrls0.wrQLenPdf::5                      2                       # What write queue length does an incoming req see
system.mem_ctrls0.wrQLenPdf::6                      2                       # What write queue length does an incoming req see
system.mem_ctrls0.wrQLenPdf::7                      2                       # What write queue length does an incoming req see
system.mem_ctrls0.wrQLenPdf::8                      2                       # What write queue length does an incoming req see
system.mem_ctrls0.wrQLenPdf::9                      2                       # What write queue length does an incoming req see
system.mem_ctrls0.wrQLenPdf::10                     2                       # What write queue length does an incoming req see
system.mem_ctrls0.wrQLenPdf::11                     2                       # What write queue length does an incoming req see
system.mem_ctrls0.wrQLenPdf::12                     2                       # What write queue length does an incoming req see
system.mem_ctrls0.wrQLenPdf::13                     2                       # What write queue length does an incoming req see
system.mem_ctrls0.wrQLenPdf::14                     2                       # What write queue length does an incoming req see
system.mem_ctrls0.wrQLenPdf::15                199205                       # What write queue length does an incoming req see
system.mem_ctrls0.wrQLenPdf::16                209558                       # What write queue length does an incoming req see
system.mem_ctrls0.wrQLenPdf::17                243938                       # What write queue length does an incoming req see
system.mem_ctrls0.wrQLenPdf::18                247605                       # What write queue length does an incoming req see
system.mem_ctrls0.wrQLenPdf::19                248091                       # What write queue length does an incoming req see
system.mem_ctrls0.wrQLenPdf::20                248198                       # What write queue length does an incoming req see
system.mem_ctrls0.wrQLenPdf::21                248456                       # What write queue length does an incoming req see
system.mem_ctrls0.wrQLenPdf::22                248886                       # What write queue length does an incoming req see
system.mem_ctrls0.wrQLenPdf::23                249149                       # What write queue length does an incoming req see
system.mem_ctrls0.wrQLenPdf::24                248792                       # What write queue length does an incoming req see
system.mem_ctrls0.wrQLenPdf::25                248626                       # What write queue length does an incoming req see
system.mem_ctrls0.wrQLenPdf::26                248643                       # What write queue length does an incoming req see
system.mem_ctrls0.wrQLenPdf::27                248799                       # What write queue length does an incoming req see
system.mem_ctrls0.wrQLenPdf::28                248809                       # What write queue length does an incoming req see
system.mem_ctrls0.wrQLenPdf::29                249169                       # What write queue length does an incoming req see
system.mem_ctrls0.wrQLenPdf::30                251479                       # What write queue length does an incoming req see
system.mem_ctrls0.wrQLenPdf::31                248092                       # What write queue length does an incoming req see
system.mem_ctrls0.wrQLenPdf::32                247777                       # What write queue length does an incoming req see
system.mem_ctrls0.wrQLenPdf::33                   212                       # What write queue length does an incoming req see
system.mem_ctrls0.wrQLenPdf::34                    36                       # What write queue length does an incoming req see
system.mem_ctrls0.wrQLenPdf::35                     7                       # What write queue length does an incoming req see
system.mem_ctrls0.wrQLenPdf::36                     1                       # What write queue length does an incoming req see
system.mem_ctrls0.wrQLenPdf::37                     0                       # What write queue length does an incoming req see
system.mem_ctrls0.wrQLenPdf::38                     0                       # What write queue length does an incoming req see
system.mem_ctrls0.wrQLenPdf::39                     0                       # What write queue length does an incoming req see
system.mem_ctrls0.wrQLenPdf::40                     0                       # What write queue length does an incoming req see
system.mem_ctrls0.wrQLenPdf::41                     0                       # What write queue length does an incoming req see
system.mem_ctrls0.wrQLenPdf::42                     0                       # What write queue length does an incoming req see
system.mem_ctrls0.wrQLenPdf::43                     0                       # What write queue length does an incoming req see
system.mem_ctrls0.wrQLenPdf::44                     0                       # What write queue length does an incoming req see
system.mem_ctrls0.wrQLenPdf::45                     0                       # What write queue length does an incoming req see
system.mem_ctrls0.wrQLenPdf::46                     0                       # What write queue length does an incoming req see
system.mem_ctrls0.wrQLenPdf::47                     0                       # What write queue length does an incoming req see
system.mem_ctrls0.wrQLenPdf::48                     0                       # What write queue length does an incoming req see
system.mem_ctrls0.wrQLenPdf::49                     0                       # What write queue length does an incoming req see
system.mem_ctrls0.wrQLenPdf::50                     0                       # What write queue length does an incoming req see
system.mem_ctrls0.wrQLenPdf::51                     0                       # What write queue length does an incoming req see
system.mem_ctrls0.wrQLenPdf::52                     0                       # What write queue length does an incoming req see
system.mem_ctrls0.wrQLenPdf::53                     0                       # What write queue length does an incoming req see
system.mem_ctrls0.wrQLenPdf::54                     0                       # What write queue length does an incoming req see
system.mem_ctrls0.wrQLenPdf::55                     0                       # What write queue length does an incoming req see
system.mem_ctrls0.wrQLenPdf::56                     0                       # What write queue length does an incoming req see
system.mem_ctrls0.wrQLenPdf::57                     0                       # What write queue length does an incoming req see
system.mem_ctrls0.wrQLenPdf::58                     0                       # What write queue length does an incoming req see
system.mem_ctrls0.wrQLenPdf::59                     0                       # What write queue length does an incoming req see
system.mem_ctrls0.wrQLenPdf::60                     0                       # What write queue length does an incoming req see
system.mem_ctrls0.wrQLenPdf::61                     0                       # What write queue length does an incoming req see
system.mem_ctrls0.wrQLenPdf::62                     0                       # What write queue length does an incoming req see
system.mem_ctrls0.wrQLenPdf::63                     0                       # What write queue length does an incoming req see
system.mem_ctrls0.bytesPerActivate::samples      9321875                       # Bytes accessed per row activation
system.mem_ctrls0.bytesPerActivate::mean    90.460421                       # Bytes accessed per row activation
system.mem_ctrls0.bytesPerActivate::gmean    81.432360                       # Bytes accessed per row activation
system.mem_ctrls0.bytesPerActivate::stdev    53.689965                       # Bytes accessed per row activation
system.mem_ctrls0.bytesPerActivate::0-127      6693383     71.80%     71.80% # Bytes accessed per row activation
system.mem_ctrls0.bytesPerActivate::128-255      2400997     25.76%     97.56% # Bytes accessed per row activation
system.mem_ctrls0.bytesPerActivate::256-383       177413      1.90%     99.46% # Bytes accessed per row activation
system.mem_ctrls0.bytesPerActivate::384-511        34575      0.37%     99.83% # Bytes accessed per row activation
system.mem_ctrls0.bytesPerActivate::512-639         9510      0.10%     99.94% # Bytes accessed per row activation
system.mem_ctrls0.bytesPerActivate::640-767         3434      0.04%     99.97% # Bytes accessed per row activation
system.mem_ctrls0.bytesPerActivate::768-895         2003      0.02%     99.99% # Bytes accessed per row activation
system.mem_ctrls0.bytesPerActivate::896-1023          471      0.01%    100.00% # Bytes accessed per row activation
system.mem_ctrls0.bytesPerActivate::1024-1151           89      0.00%    100.00% # Bytes accessed per row activation
system.mem_ctrls0.bytesPerActivate::total      9321875                       # Bytes accessed per row activation
system.mem_ctrls0.rdPerTurnAround::samples       247563                       # Reads before turning the bus around for writes
system.mem_ctrls0.rdPerTurnAround::mean     35.515861                       # Reads before turning the bus around for writes
system.mem_ctrls0.rdPerTurnAround::stdev    57.038742                       # Reads before turning the bus around for writes
system.mem_ctrls0.rdPerTurnAround::0-1023       247560    100.00%    100.00% # Reads before turning the bus around for writes
system.mem_ctrls0.rdPerTurnAround::1024-2047            2      0.00%    100.00% # Reads before turning the bus around for writes
system.mem_ctrls0.rdPerTurnAround::27648-28671            1      0.00%    100.00% # Reads before turning the bus around for writes
system.mem_ctrls0.rdPerTurnAround::total       247563                       # Reads before turning the bus around for writes
system.mem_ctrls0.wrPerTurnAround::samples       247563                       # Writes before turning the bus around for reads
system.mem_ctrls0.wrPerTurnAround::mean     17.706721                       # Writes before turning the bus around for reads
system.mem_ctrls0.wrPerTurnAround::gmean    17.688518                       # Writes before turning the bus around for reads
system.mem_ctrls0.wrPerTurnAround::stdev     0.787742                       # Writes before turning the bus around for reads
system.mem_ctrls0.wrPerTurnAround::15               1      0.00%      0.00% # Writes before turning the bus around for reads
system.mem_ctrls0.wrPerTurnAround::16           37378     15.10%     15.10% # Writes before turning the bus around for reads
system.mem_ctrls0.wrPerTurnAround::17            9820      3.97%     19.07% # Writes before turning the bus around for reads
system.mem_ctrls0.wrPerTurnAround::18          189911     76.71%     95.78% # Writes before turning the bus around for reads
system.mem_ctrls0.wrPerTurnAround::19            9141      3.69%     99.47% # Writes before turning the bus around for reads
system.mem_ctrls0.wrPerTurnAround::20            1150      0.46%     99.93% # Writes before turning the bus around for reads
system.mem_ctrls0.wrPerTurnAround::21             130      0.05%     99.99% # Writes before turning the bus around for reads
system.mem_ctrls0.wrPerTurnAround::22              24      0.01%    100.00% # Writes before turning the bus around for reads
system.mem_ctrls0.wrPerTurnAround::23               2      0.00%    100.00% # Writes before turning the bus around for reads
system.mem_ctrls0.wrPerTurnAround::24               5      0.00%    100.00% # Writes before turning the bus around for reads
system.mem_ctrls0.wrPerTurnAround::25               1      0.00%    100.00% # Writes before turning the bus around for reads
system.mem_ctrls0.wrPerTurnAround::total       247563                       # Writes before turning the bus around for reads
system.mem_ctrls0.totQLat                234923037748                       # Total ticks spent queuing
system.mem_ctrls0.totMemAccLat           399781081498                       # Total ticks spent from burst creation until serviced by the DRAM
system.mem_ctrls0.totBusLat               43962145000                       # Total ticks spent in databus transfers
system.mem_ctrls0.avgQLat                    26718.79                       # Average queueing delay per DRAM burst
system.mem_ctrls0.avgBusLat                   5000.00                       # Average bus latency per DRAM burst
system.mem_ctrls0.avgMemAccLat               45468.79                       # Average memory access latency per DRAM burst
system.mem_ctrls0.avgRdBW                      147.91                       # Average DRAM read bandwidth in MiByte/s
system.mem_ctrls0.avgWrBW                       73.74                       # Average achieved write bandwidth in MiByte/s
system.mem_ctrls0.avgRdBWSys                   147.91                       # Average system read bandwidth in MiByte/s
system.mem_ctrls0.avgWrBWSys                    73.74                       # Average system write bandwidth in MiByte/s
system.mem_ctrls0.peakBW                     12800.00                       # Theoretical peak bandwidth in MiByte/s
system.mem_ctrls0.busUtil                        1.73                       # Data bus utilization in percentage
system.mem_ctrls0.busUtilRead                    1.16                       # Data bus utilization in percentage for reads
system.mem_ctrls0.busUtilWrite                   0.58                       # Data bus utilization in percentage for writes
system.mem_ctrls0.avgRdQLen                      1.03                       # Average read queue length when enqueuing
system.mem_ctrls0.avgWrQLen                     24.56                       # Average write queue length when enqueuing
system.mem_ctrls0.readRowHits                 2740732                       # Number of row buffer hits during reads
system.mem_ctrls0.writeRowHits                1113345                       # Number of row buffer hits during writes
system.mem_ctrls0.readRowHitRate                31.17                       # Row buffer hit rate for reads
system.mem_ctrls0.writeRowHitRate               25.40                       # Row buffer hit rate for writes
system.mem_ctrls0.avgGap                    288741.13                       # Average gap between requests
system.mem_ctrls0.pageHitRate                   29.25                       # Row buffer hit rate, read and write combined
system.mem_ctrls0_0.actEnergy             33261882780                       # Energy for activate commands per rank (pJ)
system.mem_ctrls0_0.preEnergy             17679094785                       # Energy for precharge commands per rank (pJ)
system.mem_ctrls0_0.readEnergy            31390738680                       # Energy for read commands per rank (pJ)
system.mem_ctrls0_0.writeEnergy           11444949180                       # Energy for write commands per rank (pJ)
system.mem_ctrls0_0.refreshEnergy        299113326720.000061                       # Energy for refresh commands per rank (pJ)
system.mem_ctrls0_0.actBackEnergy        233739885750                       # Energy for active background per rank (pJ)
system.mem_ctrls0_0.preBackEnergy          7805071200                       # Energy for precharge background per rank (pJ)
system.mem_ctrls0_0.actPowerDownEnergy   1281846086310                       # Energy for active power-down per rank (pJ)
system.mem_ctrls0_0.prePowerDownEnergy   147721194720                       # Energy for precharge power-down per rank (pJ)
system.mem_ctrls0_0.selfRefreshEnergy     22802371890                       # Energy for self refresh per rank (pJ)
system.mem_ctrls0_0.totalEnergy          2086833386145                       # Total energy per rank (pJ)
system.mem_ctrls0_0.averagePower           548.523986                       # Core power per rank (mW)
system.mem_ctrls0_0.totalIdleTime        3271476058773                       # Total Idle time Per DRAM Rank
system.mem_ctrls0_0.memoryStateTime::IDLE   5029455674                       # Time in different power states
system.mem_ctrls0_0.memoryStateTime::REF 126581208000                       # Time in different power states
system.mem_ctrls0_0.memoryStateTime::SREF  75718608893                       # Time in different power states
system.mem_ctrls0_0.memoryStateTime::PRE_PDN 384695081704                       # Time in different power states
system.mem_ctrls0_0.memoryStateTime::ACT 401365522253                       # Time in different power states
system.mem_ctrls0_0.memoryStateTime::ACT_PDN 2811062489849                       # Time in different power states
system.mem_ctrls0_1.actEnergy             33296347560                       # Energy for activate commands per rank (pJ)
system.mem_ctrls0_1.preEnergy             17697420840                       # Energy for precharge commands per rank (pJ)
system.mem_ctrls0_1.readEnergy            31387204380                       # Energy for read commands per rank (pJ)
system.mem_ctrls0_1.writeEnergy           11437072200                       # Energy for write commands per rank (pJ)
system.mem_ctrls0_1.refreshEnergy        298778962560.000061                       # Energy for refresh commands per rank (pJ)
system.mem_ctrls0_1.actBackEnergy        233290974270                       # Energy for active background per rank (pJ)
system.mem_ctrls0_1.preBackEnergy          7761152160                       # Energy for precharge background per rank (pJ)
system.mem_ctrls0_1.actPowerDownEnergy   1283542546530                       # Energy for active power-down per rank (pJ)
system.mem_ctrls0_1.prePowerDownEnergy   146791767840                       # Energy for precharge power-down per rank (pJ)
system.mem_ctrls0_1.selfRefreshEnergy     22416280980                       # Energy for self refresh per rank (pJ)
system.mem_ctrls0_1.totalEnergy          2086426805730                       # Total energy per rank (pJ)
system.mem_ctrls0_1.averagePower           548.417117                       # Core power per rank (mW)
system.mem_ctrls0_1.totalIdleTime        3272576953105                       # Total Idle time Per DRAM Rank
system.mem_ctrls0_1.memoryStateTime::IDLE   4882701788                       # Time in different power states
system.mem_ctrls0_1.memoryStateTime::REF 126436228000                       # Time in different power states
system.mem_ctrls0_1.memoryStateTime::SREF  75521308878                       # Time in different power states
system.mem_ctrls0_1.memoryStateTime::PRE_PDN 382262794708                       # Time in different power states
system.mem_ctrls0_1.memoryStateTime::ACT 400556483480                       # Time in different power states
system.mem_ctrls0_1.memoryStateTime::ACT_PDN 2814792849519                       # Time in different power states
system.mem_ctrls1.pwrStateResidencyTicks::UNDEFINED 147281440683447                       # Cumulative time (in ticks) in various power states
system.mem_ctrls1.bytes_read::cpu.inst             64                       # Number of bytes read from this memory
system.mem_ctrls1.bytes_read::cpu.data             64                       # Number of bytes read from this memory
system.mem_ctrls1.bytes_read::switch_cpus.inst        20288                       # Number of bytes read from this memory
system.mem_ctrls1.bytes_read::switch_cpus.data    477871232                       # Number of bytes read from this memory
system.mem_ctrls1.bytes_read::switch_cpus_1.inst         6656                       # Number of bytes read from this memory
system.mem_ctrls1.bytes_read::switch_cpus_1.data     84864832                       # Number of bytes read from this memory
system.mem_ctrls1.bytes_read::total         562763136                       # Number of bytes read from this memory
system.mem_ctrls1.bytes_inst_read::cpu.inst           64                       # Number of instructions bytes read from this memory
system.mem_ctrls1.bytes_inst_read::switch_cpus.inst        20288                       # Number of instructions bytes read from this memory
system.mem_ctrls1.bytes_inst_read::switch_cpus_1.inst         6656                       # Number of instructions bytes read from this memory
system.mem_ctrls1.bytes_inst_read::total        27008                       # Number of instructions bytes read from this memory
system.mem_ctrls1.bytes_written::writebacks    280545216                       # Number of bytes written to this memory
system.mem_ctrls1.bytes_written::total      280545216                       # Number of bytes written to this memory
system.mem_ctrls1.num_reads::cpu.inst               1                       # Number of read requests responded to by this memory
system.mem_ctrls1.num_reads::cpu.data               1                       # Number of read requests responded to by this memory
system.mem_ctrls1.num_reads::switch_cpus.inst          317                       # Number of read requests responded to by this memory
system.mem_ctrls1.num_reads::switch_cpus.data      7466738                       # Number of read requests responded to by this memory
system.mem_ctrls1.num_reads::switch_cpus_1.inst          104                       # Number of read requests responded to by this memory
system.mem_ctrls1.num_reads::switch_cpus_1.data      1326013                       # Number of read requests responded to by this memory
system.mem_ctrls1.num_reads::total            8793174                       # Number of read requests responded to by this memory
system.mem_ctrls1.num_writes::writebacks      4383519                       # Number of write requests responded to by this memory
system.mem_ctrls1.num_writes::total           4383519                       # Number of write requests responded to by this memory
system.mem_ctrls1.bw_read::cpu.inst                17                       # Total read bandwidth from this memory (bytes/s)
system.mem_ctrls1.bw_read::cpu.data                17                       # Total read bandwidth from this memory (bytes/s)
system.mem_ctrls1.bw_read::switch_cpus.inst         5333                       # Total read bandwidth from this memory (bytes/s)
system.mem_ctrls1.bw_read::switch_cpus.data    125608415                       # Total read bandwidth from this memory (bytes/s)
system.mem_ctrls1.bw_read::switch_cpus_1.inst         1750                       # Total read bandwidth from this memory (bytes/s)
system.mem_ctrls1.bw_read::switch_cpus_1.data     22306714                       # Total read bandwidth from this memory (bytes/s)
system.mem_ctrls1.bw_read::total            147922245                       # Total read bandwidth from this memory (bytes/s)
system.mem_ctrls1.bw_inst_read::cpu.inst           17                       # Instruction read bandwidth from this memory (bytes/s)
system.mem_ctrls1.bw_inst_read::switch_cpus.inst         5333                       # Instruction read bandwidth from this memory (bytes/s)
system.mem_ctrls1.bw_inst_read::switch_cpus_1.inst         1750                       # Instruction read bandwidth from this memory (bytes/s)
system.mem_ctrls1.bw_inst_read::total            7099                       # Instruction read bandwidth from this memory (bytes/s)
system.mem_ctrls1.bw_write::writebacks       73741288                       # Write bandwidth from this memory (bytes/s)
system.mem_ctrls1.bw_write::total            73741288                       # Write bandwidth from this memory (bytes/s)
system.mem_ctrls1.bw_total::writebacks       73741288                       # Total bandwidth to/from this memory (bytes/s)
system.mem_ctrls1.bw_total::cpu.inst               17                       # Total bandwidth to/from this memory (bytes/s)
system.mem_ctrls1.bw_total::cpu.data               17                       # Total bandwidth to/from this memory (bytes/s)
system.mem_ctrls1.bw_total::switch_cpus.inst         5333                       # Total bandwidth to/from this memory (bytes/s)
system.mem_ctrls1.bw_total::switch_cpus.data    125608415                       # Total bandwidth to/from this memory (bytes/s)
system.mem_ctrls1.bw_total::switch_cpus_1.inst         1750                       # Total bandwidth to/from this memory (bytes/s)
system.mem_ctrls1.bw_total::switch_cpus_1.data     22306714                       # Total bandwidth to/from this memory (bytes/s)
system.mem_ctrls1.bw_total::total           221663533                       # Total bandwidth to/from this memory (bytes/s)
system.mem_ctrls1.readReqs                    8793174                       # Number of read requests accepted
system.mem_ctrls1.writeReqs                   4383519                       # Number of write requests accepted
system.mem_ctrls1.readBursts                  8793174                       # Number of DRAM read bursts, including those serviced by the write queue
system.mem_ctrls1.writeBursts                 4383519                       # Number of DRAM write bursts, including those merged in the write queue
system.mem_ctrls1.bytesReadDRAM             562762432                       # Total number of bytes read from DRAM
system.mem_ctrls1.bytesReadWrQ                    704                       # Total number of bytes read from write queue
system.mem_ctrls1.bytesWritten              280543872                       # Total number of bytes written to DRAM
system.mem_ctrls1.bytesReadSys              562763136                       # Total read bytes from the system interface side
system.mem_ctrls1.bytesWrittenSys           280545216                       # Total written bytes from the system interface side
system.mem_ctrls1.servicedByWrQ                    11                       # Number of DRAM read bursts serviced by the write queue
system.mem_ctrls1.mergedWrBursts                    0                       # Number of DRAM write bursts merged with an existing one
system.mem_ctrls1.neitherReadNorWriteReqs            0                       # Number of requests that are neither read nor write
system.mem_ctrls1.perBankRdBursts::0           548673                       # Per bank write bursts
system.mem_ctrls1.perBankRdBursts::1           548712                       # Per bank write bursts
system.mem_ctrls1.perBankRdBursts::2           549209                       # Per bank write bursts
system.mem_ctrls1.perBankRdBursts::3           551563                       # Per bank write bursts
system.mem_ctrls1.perBankRdBursts::4           550047                       # Per bank write bursts
system.mem_ctrls1.perBankRdBursts::5           549154                       # Per bank write bursts
system.mem_ctrls1.perBankRdBursts::6           549029                       # Per bank write bursts
system.mem_ctrls1.perBankRdBursts::7           549770                       # Per bank write bursts
system.mem_ctrls1.perBankRdBursts::8           551090                       # Per bank write bursts
system.mem_ctrls1.perBankRdBursts::9           548500                       # Per bank write bursts
system.mem_ctrls1.perBankRdBursts::10          547607                       # Per bank write bursts
system.mem_ctrls1.perBankRdBursts::11          549392                       # Per bank write bursts
system.mem_ctrls1.perBankRdBursts::12          550014                       # Per bank write bursts
system.mem_ctrls1.perBankRdBursts::13          550562                       # Per bank write bursts
system.mem_ctrls1.perBankRdBursts::14          550483                       # Per bank write bursts
system.mem_ctrls1.perBankRdBursts::15          549358                       # Per bank write bursts
system.mem_ctrls1.perBankWrBursts::0           275347                       # Per bank write bursts
system.mem_ctrls1.perBankWrBursts::1           274044                       # Per bank write bursts
system.mem_ctrls1.perBankWrBursts::2           273258                       # Per bank write bursts
system.mem_ctrls1.perBankWrBursts::3           274305                       # Per bank write bursts
system.mem_ctrls1.perBankWrBursts::4           274200                       # Per bank write bursts
system.mem_ctrls1.perBankWrBursts::5           274023                       # Per bank write bursts
system.mem_ctrls1.perBankWrBursts::6           273955                       # Per bank write bursts
system.mem_ctrls1.perBankWrBursts::7           273297                       # Per bank write bursts
system.mem_ctrls1.perBankWrBursts::8           273300                       # Per bank write bursts
system.mem_ctrls1.perBankWrBursts::9           272804                       # Per bank write bursts
system.mem_ctrls1.perBankWrBursts::10          273913                       # Per bank write bursts
system.mem_ctrls1.perBankWrBursts::11          275407                       # Per bank write bursts
system.mem_ctrls1.perBankWrBursts::12          274291                       # Per bank write bursts
system.mem_ctrls1.perBankWrBursts::13          272990                       # Per bank write bursts
system.mem_ctrls1.perBankWrBursts::14          273422                       # Per bank write bursts
system.mem_ctrls1.perBankWrBursts::15          274942                       # Per bank write bursts
system.mem_ctrls1.numRdRetry                        0                       # Number of times read queue was full causing retry
system.mem_ctrls1.numWrRetry                        0                       # Number of times write queue was full causing retry
system.mem_ctrls1.totGap                 3804451973766                       # Total gap between requests
system.mem_ctrls1.readPktSize::0                    0                       # Read request sizes (log2)
system.mem_ctrls1.readPktSize::1                    0                       # Read request sizes (log2)
system.mem_ctrls1.readPktSize::2                    0                       # Read request sizes (log2)
system.mem_ctrls1.readPktSize::3                    0                       # Read request sizes (log2)
system.mem_ctrls1.readPktSize::4                    0                       # Read request sizes (log2)
system.mem_ctrls1.readPktSize::5                    0                       # Read request sizes (log2)
system.mem_ctrls1.readPktSize::6              8793174                       # Read request sizes (log2)
system.mem_ctrls1.writePktSize::0                   0                       # Write request sizes (log2)
system.mem_ctrls1.writePktSize::1                   0                       # Write request sizes (log2)
system.mem_ctrls1.writePktSize::2                   0                       # Write request sizes (log2)
system.mem_ctrls1.writePktSize::3                   0                       # Write request sizes (log2)
system.mem_ctrls1.writePktSize::4                   0                       # Write request sizes (log2)
system.mem_ctrls1.writePktSize::5                   0                       # Write request sizes (log2)
system.mem_ctrls1.writePktSize::6             4383519                       # Write request sizes (log2)
system.mem_ctrls1.rdQLenPdf::0                8362964                       # What read queue length does an incoming req see
system.mem_ctrls1.rdQLenPdf::1                 318316                       # What read queue length does an incoming req see
system.mem_ctrls1.rdQLenPdf::2                  98299                       # What read queue length does an incoming req see
system.mem_ctrls1.rdQLenPdf::3                  13584                       # What read queue length does an incoming req see
system.mem_ctrls1.rdQLenPdf::4                      0                       # What read queue length does an incoming req see
system.mem_ctrls1.rdQLenPdf::5                      0                       # What read queue length does an incoming req see
system.mem_ctrls1.rdQLenPdf::6                      0                       # What read queue length does an incoming req see
system.mem_ctrls1.rdQLenPdf::7                      0                       # What read queue length does an incoming req see
system.mem_ctrls1.rdQLenPdf::8                      0                       # What read queue length does an incoming req see
system.mem_ctrls1.rdQLenPdf::9                      0                       # What read queue length does an incoming req see
system.mem_ctrls1.rdQLenPdf::10                     0                       # What read queue length does an incoming req see
system.mem_ctrls1.rdQLenPdf::11                     0                       # What read queue length does an incoming req see
system.mem_ctrls1.rdQLenPdf::12                     0                       # What read queue length does an incoming req see
system.mem_ctrls1.rdQLenPdf::13                     0                       # What read queue length does an incoming req see
system.mem_ctrls1.rdQLenPdf::14                     0                       # What read queue length does an incoming req see
system.mem_ctrls1.rdQLenPdf::15                     0                       # What read queue length does an incoming req see
system.mem_ctrls1.rdQLenPdf::16                     0                       # What read queue length does an incoming req see
system.mem_ctrls1.rdQLenPdf::17                     0                       # What read queue length does an incoming req see
system.mem_ctrls1.rdQLenPdf::18                     0                       # What read queue length does an incoming req see
system.mem_ctrls1.rdQLenPdf::19                     0                       # What read queue length does an incoming req see
system.mem_ctrls1.rdQLenPdf::20                     0                       # What read queue length does an incoming req see
system.mem_ctrls1.rdQLenPdf::21                     0                       # What read queue length does an incoming req see
system.mem_ctrls1.rdQLenPdf::22                     0                       # What read queue length does an incoming req see
system.mem_ctrls1.rdQLenPdf::23                     0                       # What read queue length does an incoming req see
system.mem_ctrls1.rdQLenPdf::24                     0                       # What read queue length does an incoming req see
system.mem_ctrls1.rdQLenPdf::25                     0                       # What read queue length does an incoming req see
system.mem_ctrls1.rdQLenPdf::26                     0                       # What read queue length does an incoming req see
system.mem_ctrls1.rdQLenPdf::27                     0                       # What read queue length does an incoming req see
system.mem_ctrls1.rdQLenPdf::28                     0                       # What read queue length does an incoming req see
system.mem_ctrls1.rdQLenPdf::29                     0                       # What read queue length does an incoming req see
system.mem_ctrls1.rdQLenPdf::30                     0                       # What read queue length does an incoming req see
system.mem_ctrls1.rdQLenPdf::31                     0                       # What read queue length does an incoming req see
system.mem_ctrls1.wrQLenPdf::0                      2                       # What write queue length does an incoming req see
system.mem_ctrls1.wrQLenPdf::1                      2                       # What write queue length does an incoming req see
system.mem_ctrls1.wrQLenPdf::2                      2                       # What write queue length does an incoming req see
system.mem_ctrls1.wrQLenPdf::3                      2                       # What write queue length does an incoming req see
system.mem_ctrls1.wrQLenPdf::4                      2                       # What write queue length does an incoming req see
system.mem_ctrls1.wrQLenPdf::5                      2                       # What write queue length does an incoming req see
system.mem_ctrls1.wrQLenPdf::6                      2                       # What write queue length does an incoming req see
system.mem_ctrls1.wrQLenPdf::7                      2                       # What write queue length does an incoming req see
system.mem_ctrls1.wrQLenPdf::8                      2                       # What write queue length does an incoming req see
system.mem_ctrls1.wrQLenPdf::9                      2                       # What write queue length does an incoming req see
system.mem_ctrls1.wrQLenPdf::10                     2                       # What write queue length does an incoming req see
system.mem_ctrls1.wrQLenPdf::11                     2                       # What write queue length does an incoming req see
system.mem_ctrls1.wrQLenPdf::12                     2                       # What write queue length does an incoming req see
system.mem_ctrls1.wrQLenPdf::13                     2                       # What write queue length does an incoming req see
system.mem_ctrls1.wrQLenPdf::14                     2                       # What write queue length does an incoming req see
system.mem_ctrls1.wrQLenPdf::15                199040                       # What write queue length does an incoming req see
system.mem_ctrls1.wrQLenPdf::16                209230                       # What write queue length does an incoming req see
system.mem_ctrls1.wrQLenPdf::17                244030                       # What write queue length does an incoming req see
system.mem_ctrls1.wrQLenPdf::18                247593                       # What write queue length does an incoming req see
system.mem_ctrls1.wrQLenPdf::19                248067                       # What write queue length does an incoming req see
system.mem_ctrls1.wrQLenPdf::20                248193                       # What write queue length does an incoming req see
system.mem_ctrls1.wrQLenPdf::21                248487                       # What write queue length does an incoming req see
system.mem_ctrls1.wrQLenPdf::22                248904                       # What write queue length does an incoming req see
system.mem_ctrls1.wrQLenPdf::23                249149                       # What write queue length does an incoming req see
system.mem_ctrls1.wrQLenPdf::24                248881                       # What write queue length does an incoming req see
system.mem_ctrls1.wrQLenPdf::25                248673                       # What write queue length does an incoming req see
system.mem_ctrls1.wrQLenPdf::26                248734                       # What write queue length does an incoming req see
system.mem_ctrls1.wrQLenPdf::27                248787                       # What write queue length does an incoming req see
system.mem_ctrls1.wrQLenPdf::28                248836                       # What write queue length does an incoming req see
system.mem_ctrls1.wrQLenPdf::29                249173                       # What write queue length does an incoming req see
system.mem_ctrls1.wrQLenPdf::30                251495                       # What write queue length does an incoming req see
system.mem_ctrls1.wrQLenPdf::31                248111                       # What write queue length does an incoming req see
system.mem_ctrls1.wrQLenPdf::32                247823                       # What write queue length does an incoming req see
system.mem_ctrls1.wrQLenPdf::33                   235                       # What write queue length does an incoming req see
system.mem_ctrls1.wrQLenPdf::34                    37                       # What write queue length does an incoming req see
system.mem_ctrls1.wrQLenPdf::35                     8                       # What write queue length does an incoming req see
system.mem_ctrls1.wrQLenPdf::36                     2                       # What write queue length does an incoming req see
system.mem_ctrls1.wrQLenPdf::37                     1                       # What write queue length does an incoming req see
system.mem_ctrls1.wrQLenPdf::38                     0                       # What write queue length does an incoming req see
system.mem_ctrls1.wrQLenPdf::39                     0                       # What write queue length does an incoming req see
system.mem_ctrls1.wrQLenPdf::40                     0                       # What write queue length does an incoming req see
system.mem_ctrls1.wrQLenPdf::41                     0                       # What write queue length does an incoming req see
system.mem_ctrls1.wrQLenPdf::42                     0                       # What write queue length does an incoming req see
system.mem_ctrls1.wrQLenPdf::43                     0                       # What write queue length does an incoming req see
system.mem_ctrls1.wrQLenPdf::44                     0                       # What write queue length does an incoming req see
system.mem_ctrls1.wrQLenPdf::45                     0                       # What write queue length does an incoming req see
system.mem_ctrls1.wrQLenPdf::46                     0                       # What write queue length does an incoming req see
system.mem_ctrls1.wrQLenPdf::47                     0                       # What write queue length does an incoming req see
system.mem_ctrls1.wrQLenPdf::48                     0                       # What write queue length does an incoming req see
system.mem_ctrls1.wrQLenPdf::49                     0                       # What write queue length does an incoming req see
system.mem_ctrls1.wrQLenPdf::50                     0                       # What write queue length does an incoming req see
system.mem_ctrls1.wrQLenPdf::51                     0                       # What write queue length does an incoming req see
system.mem_ctrls1.wrQLenPdf::52                     0                       # What write queue length does an incoming req see
system.mem_ctrls1.wrQLenPdf::53                     0                       # What write queue length does an incoming req see
system.mem_ctrls1.wrQLenPdf::54                     0                       # What write queue length does an incoming req see
system.mem_ctrls1.wrQLenPdf::55                     0                       # What write queue length does an incoming req see
system.mem_ctrls1.wrQLenPdf::56                     0                       # What write queue length does an incoming req see
system.mem_ctrls1.wrQLenPdf::57                     0                       # What write queue length does an incoming req see
system.mem_ctrls1.wrQLenPdf::58                     0                       # What write queue length does an incoming req see
system.mem_ctrls1.wrQLenPdf::59                     0                       # What write queue length does an incoming req see
system.mem_ctrls1.wrQLenPdf::60                     0                       # What write queue length does an incoming req see
system.mem_ctrls1.wrQLenPdf::61                     0                       # What write queue length does an incoming req see
system.mem_ctrls1.wrQLenPdf::62                     0                       # What write queue length does an incoming req see
system.mem_ctrls1.wrQLenPdf::63                     0                       # What write queue length does an incoming req see
system.mem_ctrls1.bytesPerActivate::samples      9325911                       # Bytes accessed per row activation
system.mem_ctrls1.bytesPerActivate::mean    90.426055                       # Bytes accessed per row activation
system.mem_ctrls1.bytesPerActivate::gmean    81.411162                       # Bytes accessed per row activation
system.mem_ctrls1.bytesPerActivate::stdev    53.649836                       # Bytes accessed per row activation
system.mem_ctrls1.bytesPerActivate::0-127      6698637     71.83%     71.83% # Bytes accessed per row activation
system.mem_ctrls1.bytesPerActivate::128-255      2400749     25.74%     97.57% # Bytes accessed per row activation
system.mem_ctrls1.bytesPerActivate::256-383       176916      1.90%     99.47% # Bytes accessed per row activation
system.mem_ctrls1.bytesPerActivate::384-511        34268      0.37%     99.84% # Bytes accessed per row activation
system.mem_ctrls1.bytesPerActivate::512-639         9217      0.10%     99.93% # Bytes accessed per row activation
system.mem_ctrls1.bytesPerActivate::640-767         3523      0.04%     99.97% # Bytes accessed per row activation
system.mem_ctrls1.bytesPerActivate::768-895         2011      0.02%     99.99% # Bytes accessed per row activation
system.mem_ctrls1.bytesPerActivate::896-1023          500      0.01%    100.00% # Bytes accessed per row activation
system.mem_ctrls1.bytesPerActivate::1024-1151           90      0.00%    100.00% # Bytes accessed per row activation
system.mem_ctrls1.bytesPerActivate::total      9325911                       # Bytes accessed per row activation
system.mem_ctrls1.rdPerTurnAround::samples       247614                       # Reads before turning the bus around for writes
system.mem_ctrls1.rdPerTurnAround::mean     35.511546                       # Reads before turning the bus around for writes
system.mem_ctrls1.rdPerTurnAround::stdev    57.375258                       # Reads before turning the bus around for writes
system.mem_ctrls1.rdPerTurnAround::0-1023       247611    100.00%    100.00% # Reads before turning the bus around for writes
system.mem_ctrls1.rdPerTurnAround::1024-2047            2      0.00%    100.00% # Reads before turning the bus around for writes
system.mem_ctrls1.rdPerTurnAround::27648-28671            1      0.00%    100.00% # Reads before turning the bus around for writes
system.mem_ctrls1.rdPerTurnAround::total       247614                       # Reads before turning the bus around for writes
system.mem_ctrls1.wrPerTurnAround::samples       247614                       # Writes before turning the bus around for reads
system.mem_ctrls1.wrPerTurnAround::mean     17.702949                       # Writes before turning the bus around for reads
system.mem_ctrls1.wrPerTurnAround::gmean    17.684679                       # Writes before turning the bus around for reads
system.mem_ctrls1.wrPerTurnAround::stdev     0.788996                       # Writes before turning the bus around for reads
system.mem_ctrls1.wrPerTurnAround::15               1      0.00%      0.00% # Writes before turning the bus around for reads
system.mem_ctrls1.wrPerTurnAround::16           37790     15.26%     15.26% # Writes before turning the bus around for reads
system.mem_ctrls1.wrPerTurnAround::17            9678      3.91%     19.17% # Writes before turning the bus around for reads
system.mem_ctrls1.wrPerTurnAround::18          189912     76.70%     95.87% # Writes before turning the bus around for reads
system.mem_ctrls1.wrPerTurnAround::19            8945      3.61%     99.48% # Writes before turning the bus around for reads
system.mem_ctrls1.wrPerTurnAround::20            1147      0.46%     99.94% # Writes before turning the bus around for reads
system.mem_ctrls1.wrPerTurnAround::21             109      0.04%     99.99% # Writes before turning the bus around for reads
system.mem_ctrls1.wrPerTurnAround::22              20      0.01%    100.00% # Writes before turning the bus around for reads
system.mem_ctrls1.wrPerTurnAround::23              11      0.00%    100.00% # Writes before turning the bus around for reads
system.mem_ctrls1.wrPerTurnAround::24               1      0.00%    100.00% # Writes before turning the bus around for reads
system.mem_ctrls1.wrPerTurnAround::total       247614                       # Writes before turning the bus around for reads
system.mem_ctrls1.totQLat                235072070492                       # Total ticks spent queuing
system.mem_ctrls1.totMemAccLat           399943876742                       # Total ticks spent from burst creation until serviced by the DRAM
system.mem_ctrls1.totBusLat               43965815000                       # Total ticks spent in databus transfers
system.mem_ctrls1.avgQLat                    26733.51                       # Average queueing delay per DRAM burst
system.mem_ctrls1.avgBusLat                   5000.00                       # Average bus latency per DRAM burst
system.mem_ctrls1.avgMemAccLat               45483.51                       # Average memory access latency per DRAM burst
system.mem_ctrls1.avgRdBW                      147.92                       # Average DRAM read bandwidth in MiByte/s
system.mem_ctrls1.avgWrBW                       73.74                       # Average achieved write bandwidth in MiByte/s
system.mem_ctrls1.avgRdBWSys                   147.92                       # Average system read bandwidth in MiByte/s
system.mem_ctrls1.avgWrBWSys                    73.74                       # Average system write bandwidth in MiByte/s
system.mem_ctrls1.peakBW                     12800.00                       # Theoretical peak bandwidth in MiByte/s
system.mem_ctrls1.busUtil                        1.73                       # Data bus utilization in percentage
system.mem_ctrls1.busUtilRead                    1.16                       # Data bus utilization in percentage for reads
system.mem_ctrls1.busUtilWrite                   0.58                       # Data bus utilization in percentage for writes
system.mem_ctrls1.avgRdQLen                      1.03                       # Average read queue length when enqueuing
system.mem_ctrls1.avgWrQLen                     24.56                       # Average write queue length when enqueuing
system.mem_ctrls1.readRowHits                 2739110                       # Number of row buffer hits during reads
system.mem_ctrls1.writeRowHits                1111633                       # Number of row buffer hits during writes
system.mem_ctrls1.readRowHitRate                31.15                       # Row buffer hit rate for reads
system.mem_ctrls1.writeRowHitRate               25.36                       # Row buffer hit rate for writes
system.mem_ctrls1.avgGap                    288725.86                       # Average gap between requests
system.mem_ctrls1.pageHitRate                   29.22                       # Row buffer hit rate, read and write combined
system.mem_ctrls1_0.actEnergy             33275184600                       # Energy for activate commands per rank (pJ)
system.mem_ctrls1_0.preEnergy             17686157280                       # Energy for precharge commands per rank (pJ)
system.mem_ctrls1_0.readEnergy            31388560980                       # Energy for read commands per rank (pJ)
system.mem_ctrls1_0.writeEnergy           11444479380                       # Energy for write commands per rank (pJ)
system.mem_ctrls1_0.refreshEnergy        299127463440.000061                       # Energy for refresh commands per rank (pJ)
system.mem_ctrls1_0.actBackEnergy        234253427250                       # Energy for active background per rank (pJ)
system.mem_ctrls1_0.preBackEnergy          7811448480                       # Energy for precharge background per rank (pJ)
system.mem_ctrls1_0.actPowerDownEnergy   1281364532640                       # Energy for active power-down per rank (pJ)
system.mem_ctrls1_0.prePowerDownEnergy   147858172800                       # Energy for precharge power-down per rank (pJ)
system.mem_ctrls1_0.selfRefreshEnergy     22675764945                       # Energy for self refresh per rank (pJ)
system.mem_ctrls1_0.totalEnergy          2086910617275                       # Total energy per rank (pJ)
system.mem_ctrls1_0.averagePower           548.544286                       # Core power per rank (mW)
system.mem_ctrls1_0.totalIdleTime        3270339865744                       # Total Idle time Per DRAM Rank
system.mem_ctrls1_0.memoryStateTime::IDLE   5032465614                       # Time in different power states
system.mem_ctrls1_0.memoryStateTime::REF 126587002000                       # Time in different power states
system.mem_ctrls1_0.memoryStateTime::SREF  75282627909                       # Time in different power states
system.mem_ctrls1_0.memoryStateTime::PRE_PDN 385039846139                       # Time in different power states
system.mem_ctrls1_0.memoryStateTime::ACT 402492930753                       # Time in different power states
system.mem_ctrls1_0.memoryStateTime::ACT_PDN 2810017493958                       # Time in different power states
system.mem_ctrls1_1.actEnergy             33311869920                       # Energy for activate commands per rank (pJ)
system.mem_ctrls1_1.preEnergy             17705674965                       # Energy for precharge commands per rank (pJ)
system.mem_ctrls1_1.readEnergy            31394622840                       # Energy for read commands per rank (pJ)
system.mem_ctrls1_1.writeEnergy           11437380180                       # Energy for write commands per rank (pJ)
system.mem_ctrls1_1.refreshEnergy        298828133760.000061                       # Energy for refresh commands per rank (pJ)
system.mem_ctrls1_1.actBackEnergy        233103366180                       # Energy for active background per rank (pJ)
system.mem_ctrls1_1.preBackEnergy          7771743360                       # Energy for precharge background per rank (pJ)
system.mem_ctrls1_1.actPowerDownEnergy   1284069716160                       # Energy for active power-down per rank (pJ)
system.mem_ctrls1_1.prePowerDownEnergy   146417891520                       # Energy for precharge power-down per rank (pJ)
system.mem_ctrls1_1.selfRefreshEnergy     22527315450                       # Energy for self refresh per rank (pJ)
system.mem_ctrls1_1.totalEnergy          2086596274335                       # Total energy per rank (pJ)
system.mem_ctrls1_1.averagePower           548.461660                       # Core power per rank (mW)
system.mem_ctrls1_1.totalIdleTime        3272955911178                       # Total Idle time Per DRAM Rank
system.mem_ctrls1_1.memoryStateTime::IDLE   4908869488                       # Time in different power states
system.mem_ctrls1_1.memoryStateTime::REF 126457508000                       # Time in different power states
system.mem_ctrls1_1.memoryStateTime::SREF  75719389484                       # Time in different power states
system.mem_ctrls1_1.memoryStateTime::PRE_PDN 381292468037                       # Time in different power states
system.mem_ctrls1_1.memoryStateTime::ACT 400130077707                       # Time in different power states
system.mem_ctrls1_1.memoryStateTime::ACT_PDN 2815944053657                       # Time in different power states
system.pwrStateResidencyTicks::UNDEFINED 147281440683447                       # Cumulative time (in ticks) in various power states
system.cpu.branchPred.lookups                       0                       # Number of BP lookups
system.cpu.branchPred.condPredicted                 0                       # Number of conditional branches predicted
system.cpu.branchPred.condIncorrect                 0                       # Number of conditional branches incorrect
system.cpu.branchPred.BTBLookups                    0                       # Number of BTB lookups
system.cpu.branchPred.BTBHits                       0                       # Number of BTB hits
system.cpu.branchPred.BTBCorrect                    0                       # Number of correct BTB predictions (this stat may not work properly.
system.cpu.branchPred.BTBHitPct                   nan                       # BTB Hit Percentage
system.cpu.branchPred.usedRAS                       0                       # Number of times the RAS was used to get a target.
system.cpu.branchPred.RASInCorrect                  0                       # Number of incorrect RAS predictions.
system.cpu.branchPred.indirectLookups               0                       # Number of indirect predictor lookups.
system.cpu.branchPred.indirectHits                  0                       # Number of indirect target hits.
system.cpu.branchPred.indirectMisses                0                       # Number of indirect misses.
system.cpu.branchPredindirectMispredicted            0                       # Number of mispredicted indirect branches.
system.cpu_voltage_domain.voltage                   1                       # Voltage in Volts
system.cpu_clk_domain.clock                       333                       # Clock period in ticks
system.cpu.dtb.fetch_hits                           0                       # ITB hits
system.cpu.dtb.fetch_misses                         0                       # ITB misses
system.cpu.dtb.fetch_acv                            0                       # ITB acv
system.cpu.dtb.fetch_accesses                       0                       # ITB accesses
system.cpu.dtb.read_hits                           13                       # DTB read hits
system.cpu.dtb.read_misses                          0                       # DTB read misses
system.cpu.dtb.read_acv                             0                       # DTB read access violations
system.cpu.dtb.read_accesses                       13                       # DTB read accesses
system.cpu.dtb.write_hits                           0                       # DTB write hits
system.cpu.dtb.write_misses                         0                       # DTB write misses
system.cpu.dtb.write_acv                            0                       # DTB write access violations
system.cpu.dtb.write_accesses                       0                       # DTB write accesses
system.cpu.dtb.data_hits                           13                       # DTB hits
system.cpu.dtb.data_misses                          0                       # DTB misses
system.cpu.dtb.data_acv                             0                       # DTB access violations
system.cpu.dtb.data_accesses                       13                       # DTB accesses
system.cpu.itb.fetch_hits                           4                       # ITB hits
system.cpu.itb.fetch_misses                         0                       # ITB misses
system.cpu.itb.fetch_acv                            0                       # ITB acv
system.cpu.itb.fetch_accesses                       4                       # ITB accesses
system.cpu.itb.read_hits                            0                       # DTB read hits
system.cpu.itb.read_misses                          0                       # DTB read misses
system.cpu.itb.read_acv                             0                       # DTB read access violations
system.cpu.itb.read_accesses                        0                       # DTB read accesses
system.cpu.itb.write_hits                           0                       # DTB write hits
system.cpu.itb.write_misses                         0                       # DTB write misses
system.cpu.itb.write_acv                            0                       # DTB write access violations
system.cpu.itb.write_accesses                       0                       # DTB write accesses
system.cpu.itb.data_hits                            0                       # DTB hits
system.cpu.itb.data_misses                          0                       # DTB misses
system.cpu.itb.data_acv                             0                       # DTB access violations
system.cpu.itb.data_accesses                        0                       # DTB accesses
system.cpu.workload.num_syscalls                    0                       # Number of system calls
system.cpu.pwrStateResidencyTicks::ON    3804452366373                       # Cumulative time (in ticks) in various power states
system.cpu.numCycles                              985                       # number of cpu cycles simulated
system.cpu.numWorkItemsStarted                      0                       # number of work items this cpu started
system.cpu.numWorkItemsCompleted                    0                       # number of work items this cpu completed
system.cpu.fetch.icacheStallCycles                 51                       # Number of cycles fetch is stalled on an Icache miss
system.cpu.fetch.Insts                             23                       # Number of instructions fetch has processed
system.cpu.fetch.Cycles                             3                       # Number of cycles fetch has run and was not squashing or blocked
system.cpu.fetch.SquashCycles                       3                       # Number of cycles fetch has spent squashing
system.cpu.fetch.PendingDrainCycles                 7                       # Number of cycles fetch has spent waiting on pipes to drain
system.cpu.fetch.CacheLines                         4                       # Number of cache lines fetched
system.cpu.fetch.IcacheSquashes                     2                       # Number of outstanding Icache misses that were squashed
system.cpu.fetch.rateDist::samples                 62                       # Number of instructions fetched each cycle (Total)
system.cpu.fetch.rateDist::mean              0.370968                       # Number of instructions fetched each cycle (Total)
system.cpu.fetch.rateDist::stdev             1.661856                       # Number of instructions fetched each cycle (Total)
system.cpu.fetch.rateDist::underflows               0      0.00%      0.00% # Number of instructions fetched each cycle (Total)
[...]
system.switch_cpus_1.iq.fu_busy_rate         0.055183                       # FU busy rate (busy events/executed inst)
system.switch_cpus_1.iq.int_inst_queue_reads    820761021                       # Number of integer instruction queue reads
system.switch_cpus_1.iq.int_inst_queue_writes     79842601                       # Number of integer instruction queue writes
system.switch_cpus_1.iq.int_inst_queue_wakeup_accesses     72917798                       # Number of integer instruction queue wakeup accesses
system.switch_cpus_1.iq.fp_inst_queue_reads    313168093                       # Number of floating instruction queue reads
system.switch_cpus_1.iq.fp_inst_queue_writes    167481420                       # Number of floating instruction queue writes
system.switch_cpus_1.iq.fp_inst_queue_wakeup_accesses    142531676                       # Number of floating instruction queue wakeup accesses
system.switch_cpus_1.iq.int_alu_accesses     81303731                       # Number of integer alu accesses
system.switch_cpus_1.iq.fp_alu_accesses     160096543                       # Number of floating point alu accesses
system.switch_cpus_1.iew.lsq.thread0.forwLoads       563265                       # Number of loads that had data forwarded from stores
system.switch_cpus_1.iew.lsq.thread0.invAddrLoads            0                       # Number of loads ignored due to an invalid address
system.switch_cpus_1.iew.lsq.thread0.squashedLoads      9699161                       # Number of loads squashed
system.switch_cpus_1.iew.lsq.thread0.ignoredResponses           31                       # Number of memory responses ignored because the instruction is squashed
system.switch_cpus_1.iew.lsq.thread0.memOrderViolation          536                       # Number of memory ordering violations
system.switch_cpus_1.iew.lsq.thread0.squashedStores      1086791                       # Number of stores squashed
system.switch_cpus_1.iew.lsq.thread0.invAddrSwpfs            0                       # Number of software prefetches ignored due to an invalid address
system.switch_cpus_1.iew.lsq.thread0.blockedLoads            0                       # Number of blocked loads due to partial load-store forwarding
system.switch_cpus_1.iew.lsq.thread0.rescheduledLoads            0                       # Number of loads that were rescheduled
system.switch_cpus_1.iew.lsq.thread0.cacheBlocked     11930969                       # Number of times an access to memory failed due to the cache being blocked
system.switch_cpus_1.iew.iewIdleCycles              0                       # Number of cycles IEW is idle
system.switch_cpus_1.iew.iewSquashCycles       306923                       # Number of cycles IEW is squashing
system.switch_cpus_1.iew.iewBlockCycles      17364513                       # Number of cycles IEW is blocking
system.switch_cpus_1.iew.iewUnblockCycles    206101002                       # Number of cycles IEW is unblocking
system.switch_cpus_1.iew.iewDispatchedInsts    223847823                       # Number of instructions dispatched to IQ
system.switch_cpus_1.iew.iewDispSquashedInsts         1918                       # Number of squashed instructions skipped by dispatch
system.switch_cpus_1.iew.iewDispLoadInsts     93114769                       # Number of dispatched load instructions
system.switch_cpus_1.iew.iewDispStoreInsts     11679238                       # Number of dispatched store instructions
system.switch_cpus_1.iew.iewDispNonSpecInsts            0                       # Number of dispatched non-speculative instructions
system.switch_cpus_1.iew.iewIQFullEvents        22095                       # Number of times the IQ has become full, causing a stall
system.switch_cpus_1.iew.iewLSQFullEvents    206051291                       # Number of times the LSQ has become full, causing a stall
system.switch_cpus_1.iew.memOrderViolationEvents          536                       # Number of memory order violations
system.switch_cpus_1.iew.predictedTakenIncorrect         3860                       # Number of branches that were predicted taken incorrectly
system.switch_cpus_1.iew.predictedNotTakenIncorrect          456                       # Number of branches that were predicted not taken incorrectly
system.switch_cpus_1.iew.branchMispredicts         4316                       # Number of branch mispredicts detected at execute
system.switch_cpus_1.iew.iewExecutedInsts    228707586                       # Number of executed instructions
system.switch_cpus_1.iew.iewExecLoadInsts    104301371                       # Number of load instructions executed
system.switch_cpus_1.iew.iewExecSquashedInsts        68067                       # Number of squashed instructions skipped in execute
system.switch_cpus_1.iew.exec_swp                   0                       # number of swp insts executed
system.switch_cpus_1.iew.exec_nop              186047                       # number of nop insts executed
system.switch_cpus_1.iew.exec_refs          115022190                       # number of memory reference insts executed
system.switch_cpus_1.iew.exec_branches        1994197                       # Number of branches executed
system.switch_cpus_1.iew.exec_stores         10720819                       # Number of stores executed
system.switch_cpus_1.iew.exec_rate           0.344709                       # Inst execution rate
system.switch_cpus_1.iew.wb_sent            216537807                       # cumulative count of insts sent to commit
system.switch_cpus_1.iew.wb_count           215449474                       # cumulative count of insts written-back
system.switch_cpus_1.iew.wb_producers       142940077                       # num instructions producing a value
system.switch_cpus_1.iew.wb_consumers       149817306                       # num instructions consuming a value
system.switch_cpus_1.iew.wb_rate             0.324727                       # insts written-back per cycle
system.switch_cpus_1.iew.wb_fanout           0.954096                       # average fanout of values written-back
system.switch_cpus_1.commit.commitSquashedInsts     22578326                       # The number of squashed insts skipped by commit
system.switch_cpus_1.commit.branchMispredicts         4270                       # The number of times a branch was mispredicted
system.switch_cpus_1.commit.committed_per_cycle::samples    660449108                       # Number of insts commited each cycle
system.switch_cpus_1.commit.committed_per_cycle::mean     0.303105                       # Number of insts commited each cycle
system.switch_cpus_1.commit.committed_per_cycle::stdev     1.388922                       # Number of insts commited each cycle
system.switch_cpus_1.commit.committed_per_cycle::underflows            0      0.00%      0.00% # Number of insts commited each cycle
system.switch_cpus_1.commit.committed_per_cycle::0    617266968     93.46%     93.46% # Number of insts commited each cycle
system.switch_cpus_1.commit.committed_per_cycle::1     12557414      1.90%     95.36% # Number of insts commited each cycle
system.switch_cpus_1.commit.committed_per_cycle::2      4322207      0.65%     96.02% # Number of insts commited each cycle
system.switch_cpus_1.commit.committed_per_cycle::3      2634893      0.40%     96.42% # Number of insts commited each cycle
system.switch_cpus_1.commit.committed_per_cycle::4      2274700      0.34%     96.76% # Number of insts commited each cycle
system.switch_cpus_1.commit.committed_per_cycle::5      1622821      0.25%     97.01% # Number of insts commited each cycle
system.switch_cpus_1.commit.committed_per_cycle::6      1680190      0.25%     97.26% # Number of insts commited each cycle
system.switch_cpus_1.commit.committed_per_cycle::7       934357      0.14%     97.40% # Number of insts commited each cycle
system.switch_cpus_1.commit.committed_per_cycle::8     17155558      2.60%    100.00% # Number of insts commited each cycle
system.switch_cpus_1.commit.committed_per_cycle::overflows            0      0.00%    100.00% # Number of insts commited each cycle
system.switch_cpus_1.commit.committed_per_cycle::min_value            0                       # Number of insts commited each cycle
system.switch_cpus_1.commit.committed_per_cycle::max_value            8                       # Number of insts commited each cycle
system.switch_cpus_1.commit.committed_per_cycle::total    660449108                       # Number of insts commited each cycle
system.switch_cpus_1.commit.committedInsts    200185515                       # Number of instructions committed
system.switch_cpus_1.commit.committedOps    200185515                       # Number of ops (including micro ops) committed
system.switch_cpus_1.commit.swp_count               0                       # Number of s/w prefetches committed
system.switch_cpus_1.commit.refs             94008030                       # Number of memory references committed
system.switch_cpus_1.commit.loads            83415586                       # Number of loads committed
system.switch_cpus_1.commit.membars                 0                       # Number of memory barriers committed
system.switch_cpus_1.commit.branches          1780705                       # Number of branches committed
system.switch_cpus_1.commit.fp_insts        133556284                       # Number of committed floating point instructions.
system.switch_cpus_1.commit.int_insts       133992906                       # Number of committed integer instructions.
system.switch_cpus_1.commit.function_calls            0                       # Number of function calls committed.
system.switch_cpus_1.commit.op_class_0::No_OpClass       185513      0.09%      0.09% # Class of committed instruction
system.switch_cpus_1.commit.op_class_0::IntAlu     39964775     19.96%     20.06% # Class of committed instruction
system.switch_cpus_1.commit.op_class_0::IntMult        96303      0.05%     20.10% # Class of committed instruction
system.switch_cpus_1.commit.op_class_0::IntDiv            0      0.00%     20.10% # Class of committed instruction
system.switch_cpus_1.commit.op_class_0::FloatAdd     26372358     13.17%     33.28% # Class of committed instruction
system.switch_cpus_1.commit.op_class_0::FloatCmp            0      0.00%     33.28% # Class of committed instruction
system.switch_cpus_1.commit.op_class_0::FloatCvt            0      0.00%     33.28% # Class of committed instruction
system.switch_cpus_1.commit.op_class_0::FloatMult     39558536     19.76%     53.04% # Class of committed instruction
system.switch_cpus_1.commit.op_class_0::FloatMultAcc            0      0.00%     53.04% # Class of committed instruction
system.switch_cpus_1.commit.op_class_0::FloatDiv            0      0.00%     53.04% # Class of committed instruction
system.switch_cpus_1.commit.op_class_0::FloatMisc            0      0.00%     53.04% # Class of committed instruction
system.switch_cpus_1.commit.op_class_0::FloatSqrt            0      0.00%     53.04% # Class of committed instruction
system.switch_cpus_1.commit.op_class_0::SimdAdd            0      0.00%     53.04% # Class of committed instruction
system.switch_cpus_1.commit.op_class_0::SimdAddAcc            0      0.00%     53.04% # Class of committed instruction
system.switch_cpus_1.commit.op_class_0::SimdAlu            0      0.00%     53.04% # Class of committed instruction
system.switch_cpus_1.commit.op_class_0::SimdCmp            0      0.00%     53.04% # Class of committed instruction
system.switch_cpus_1.commit.op_class_0::SimdCvt            0      0.00%     53.04% # Class of committed instruction
system.switch_cpus_1.commit.op_class_0::SimdMisc            0      0.00%     53.04% # Class of committed instruction
system.switch_cpus_1.commit.op_class_0::SimdMult            0      0.00%     53.04% # Class of committed instruction
system.switch_cpus_1.commit.op_class_0::SimdMultAcc            0      0.00%     53.04% # Class of committed instruction
system.switch_cpus_1.commit.op_class_0::SimdShift            0      0.00%     53.04% # Class of committed instruction
system.switch_cpus_1.commit.op_class_0::SimdShiftAcc            0      0.00%     53.04% # Class of committed instruction
system.switch_cpus_1.commit.op_class_0::SimdSqrt            0      0.00%     53.04% # Class of committed instruction
system.switch_cpus_1.commit.op_class_0::SimdFloatAdd            0      0.00%     53.04% # Class of committed instruction
system.switch_cpus_1.commit.op_class_0::SimdFloatAlu            0      0.00%     53.04% # Class of committed instruction
system.switch_cpus_1.commit.op_class_0::SimdFloatCmp            0      0.00%     53.04% # Class of committed instruction
system.switch_cpus_1.commit.op_class_0::SimdFloatCvt            0      0.00%     53.04% # Class of committed instruction
system.switch_cpus_1.commit.op_class_0::SimdFloatDiv            0      0.00%     53.04% # Class of committed instruction
system.switch_cpus_1.commit.op_class_0::SimdFloatMisc            0      0.00%     53.04% # Class of committed instruction
system.switch_cpus_1.commit.op_class_0::SimdFloatMult            0      0.00%     53.04% # Class of committed instruction
system.switch_cpus_1.commit.op_class_0::SimdFloatMultAcc            0      0.00%     53.04% # Class of committed instruction
system.switch_cpus_1.commit.op_class_0::SimdFloatSqrt            0      0.00%     53.04% # Class of committed instruction
system.switch_cpus_1.commit.op_class_0::MemRead     24580982     12.28%     65.32% # Class of committed instruction
system.switch_cpus_1.commit.op_class_0::MemWrite      1801658      0.90%     66.22% # Class of committed instruction
system.switch_cpus_1.commit.op_class_0::FloatMemRead     58834604     29.39%     95.61% # Class of committed instruction
system.switch_cpus_1.commit.op_class_0::FloatMemWrite      8790786      4.39%    100.00% # Class of committed instruction
system.switch_cpus_1.commit.op_class_0::IprAccess            0      0.00%    100.00% # Class of committed instruction
system.switch_cpus_1.commit.op_class_0::InstPrefetch            0      0.00%    100.00% # Class of committed instruction
system.switch_cpus_1.commit.op_class_0::total    200185515                       # Class of committed instruction
system.switch_cpus_1.commit.bw_lim_events     17155558                       # number cycles where commit BW limit reached
system.switch_cpus_1.rob.rob_reads          862128518                       # The number of ROB reads
system.switch_cpus_1.rob.rob_writes         448486159                       # The number of ROB writes
system.switch_cpus_1.timesIdled                   361                       # Number of times that the entire CPU went into an idle state and unscheduled itself
system.switch_cpus_1.idleCycles                 72003                       # Total number of cycles that the CPU has spent unscheduled due to idling
system.switch_cpus_1.committedInsts         200000002                       # Number of Instructions Simulated
system.switch_cpus_1.committedOps           200000002                       # Number of Ops (including micro ops) Simulated
system.switch_cpus_1.cpi                     3.317398                       # CPI: Cycles Per Instruction
system.switch_cpus_1.cpi_total               3.317398                       # CPI: Total CPI of All Threads
system.switch_cpus_1.ipc                     0.301441                       # IPC: Instructions Per Cycle
system.switch_cpus_1.ipc_total               0.301441                       # IPC: Total IPC of All Threads
system.switch_cpus_1.int_regfile_reads      181596677                       # number of integer regfile reads
system.switch_cpus_1.int_regfile_writes      69122342                       # number of integer regfile writes
system.switch_cpus_1.fp_regfile_reads       147038288                       # number of floating regfile reads
system.switch_cpus_1.fp_regfile_writes      133640240                       # number of floating regfile writes
system.tol3bus.snoop_filter.tot_requests     39183954                       # Total number of requests made to the snoop filter.
system.tol3bus.snoop_filter.hit_single_requests     19589649                       # Number of requests hitting in the snoop filter with a single holder of the requested data.
system.tol3bus.snoop_filter.hit_multi_requests            0                       # Number of requests hitting in the snoop filter with multiple (>1) holders of the requested data.
system.tol3bus.snoop_filter.tot_snoops        1176071                       # Total number of snoops made to the snoop filter.
system.tol3bus.snoop_filter.hit_single_snoops      1176071                       # Number of snoops hitting in the snoop filter with a single holder of the requested data.
system.tol3bus.snoop_filter.hit_multi_snoops            0                       # Number of snoops hitting in the snoop filter with multiple (>1) holders of the requested data.
system.tol3bus.pwrStateResidencyTicks::UNDEFINED 147281440683447                       # Cumulative time (in ticks) in various power states
system.tol3bus.trans_dist::ReadResp          19456454                       # Transaction distribution
system.tol3bus.trans_dist::WritebackDirty     17802370                       # Transaction distribution
system.tol3bus.trans_dist::CleanEvict        19999112                       # Transaction distribution
system.tol3bus.trans_dist::UpgradeReq               6                       # Transaction distribution
system.tol3bus.trans_dist::UpgradeResp              6                       # Transaction distribution
system.tol3bus.trans_dist::ReadExReq           137851                       # Transaction distribution
system.tol3bus.trans_dist::ReadExResp          137851                       # Transaction distribution
system.tol3bus.trans_dist::ReadSharedReq     19456454                       # Transaction distribution
system.tol3bus.pkt_count_system.cpu.l2.mem_side::system.l3.cpu_side     58778265                       # Packet count per connected master and slave (bytes)
system.tol3bus.pkt_size_system.cpu.l2.mem_side::system.l3.cpu_side   1832294272                       # Cumulative packet size per connected master and slave (bytes)
system.tol3bus.snoops                        18211839                       # Total snoops (count)
system.tol3bus.snoopTraffic                 561092928                       # Total snoop traffic (bytes)
system.tol3bus.snoop_fanout::samples         37806150                       # Request fanout histogram
system.tol3bus.snoop_fanout::mean            0.031108                       # Request fanout histogram
system.tol3bus.snoop_fanout::stdev           0.173609                       # Request fanout histogram
system.tol3bus.snoop_fanout::underflows             0      0.00%      0.00% # Request fanout histogram
system.tol3bus.snoop_fanout::0               36630079     96.89%     96.89% # Request fanout histogram
system.tol3bus.snoop_fanout::1                1176071      3.11%    100.00% # Request fanout histogram
system.tol3bus.snoop_fanout::overflows              0      0.00%    100.00% # Request fanout histogram
system.tol3bus.snoop_fanout::min_value              0                       # Request fanout histogram
system.tol3bus.snoop_fanout::max_value              1                       # Request fanout histogram
system.tol3bus.snoop_fanout::total           37806150                       # Request fanout histogram
system.tol3bus.reqLayer0.occupancy        16057009251                       # Layer occupancy (ticks)
system.tol3bus.reqLayer0.utilization              0.4                       # Layer utilization (%)
system.tol3bus.respLayer0.occupancy       13049809128                       # Layer occupancy (ticks)
system.tol3bus.respLayer0.utilization             0.3                       # Layer utilization (%)

---------- End Simulation Statistics   ----------
