
---------- Begin Simulation Statistics ----------
sim_seconds                                  0.940149                       # Number of seconds simulated
sim_ticks                                940149490086                       # Number of ticks simulated
final_tick                               310788031374495                       # Number of ticks from beginning of simulation (restored from checkpoints and never reset)
sim_freq                                 1000000000000                       # Frequency of simulated ticks
host_inst_rate                                 616115                       # Simulator instruction rate (inst/s)
host_op_rate                                   616115                       # Simulator op (including micro ops) rate (op/s)
host_tick_rate                              482700446                       # Simulator tick rate (ticks/s)
host_mem_usage                                2399416                       # Number of bytes of host memory used
host_seconds                                  1947.69                       # Real time elapsed on the host
sim_insts                                  1200000007                       # Number of instructions simulated
sim_ops                                    1200000007                       # Number of ops (including micro ops) simulated
system.voltage_domain.voltage                       1                       # Voltage in Volts
system.clk_domain.clock                          1000                       # Clock period in ticks
system.mem_ctrls0.pwrStateResidencyTicks::UNDEFINED 310788031374495                       # Cumulative time (in ticks) in various power states
system.mem_ctrls0.bytes_read::cpu.inst             64                       # Number of bytes read from this memory
system.mem_ctrls0.bytes_read::switch_cpus.inst        25344                       # Number of bytes read from this memory
system.mem_ctrls0.bytes_read::switch_cpus.data      2626560                       # Number of bytes read from this memory
system.mem_ctrls0.bytes_read::switch_cpus_1.inst         8704                       # Number of bytes read from this memory
system.mem_ctrls0.bytes_read::switch_cpus_1.data       336832                       # Number of bytes read from this memory
system.mem_ctrls0.bytes_read::total           2997504                       # Number of bytes read from this memory
system.mem_ctrls0.bytes_inst_read::cpu.inst           64                       # Number of instructions bytes read from this memory
system.mem_ctrls0.bytes_inst_read::switch_cpus.inst        25344                       # Number of instructions bytes read from this memory
system.mem_ctrls0.bytes_inst_read::switch_cpus_1.inst         8704                       # Number of instructions bytes read from this memory
system.mem_ctrls0.bytes_inst_read::total        34112                       # Number of instructions bytes read from this memory
system.mem_ctrls0.bytes_written::writebacks       163072                       # Number of bytes written to this memory
system.mem_ctrls0.bytes_written::total         163072                       # Number of bytes written to this memory
system.mem_ctrls0.num_reads::cpu.inst               1                       # Number of read requests responded to by this memory
system.mem_ctrls0.num_reads::switch_cpus.inst          396                       # Number of read requests responded to by this memory
system.mem_ctrls0.num_reads::switch_cpus.data        41040                       # Number of read requests responded to by this memory
system.mem_ctrls0.num_reads::switch_cpus_1.inst          136                       # Number of read requests responded to by this memory
system.mem_ctrls0.num_reads::switch_cpus_1.data         5263                       # Number of read requests responded to by this memory
system.mem_ctrls0.num_reads::total              46836                       # Number of read requests responded to by this memory
system.mem_ctrls0.num_writes::writebacks         2548                       # Number of write requests responded to by this memory
system.mem_ctrls0.num_writes::total              2548                       # Number of write requests responded to by this memory
system.mem_ctrls0.bw_read::cpu.inst                68                       # Total read bandwidth from this memory (bytes/s)
system.mem_ctrls0.bw_read::switch_cpus.inst        26957                       # Total read bandwidth from this memory (bytes/s)
system.mem_ctrls0.bw_read::switch_cpus.data      2793768                       # Total read bandwidth from this memory (bytes/s)
system.mem_ctrls0.bw_read::switch_cpus_1.inst         9258                       # Total read bandwidth from this memory (bytes/s)
system.mem_ctrls0.bw_read::switch_cpus_1.data       358275                       # Total read bandwidth from this memory (bytes/s)
system.mem_ctrls0.bw_read::total              3188327                       # Total read bandwidth from this memory (bytes/s)
system.mem_ctrls0.bw_inst_read::cpu.inst           68                       # Instruction read bandwidth from this memory (bytes/s)
system.mem_ctrls0.bw_inst_read::switch_cpus.inst        26957                       # Instruction read bandwidth from this memory (bytes/s)
system.mem_ctrls0.bw_inst_read::switch_cpus_1.inst         9258                       # Instruction read bandwidth from this memory (bytes/s)
system.mem_ctrls0.bw_inst_read::total           36284                       # Instruction read bandwidth from this memory (bytes/s)
system.mem_ctrls0.bw_write::writebacks         173453                       # Write bandwidth from this memory (bytes/s)
system.mem_ctrls0.bw_write::total              173453                       # Write bandwidth from this memory (bytes/s)
system.mem_ctrls0.bw_total::writebacks         173453                       # Total bandwidth to/from this memory (bytes/s)
system.mem_ctrls0.bw_total::cpu.inst               68                       # Total bandwidth to/from this memory (bytes/s)
system.mem_ctrls0.bw_total::switch_cpus.inst        26957                       # Total bandwidth to/from this memory (bytes/s)
system.mem_ctrls0.bw_total::switch_cpus.data      2793768                       # Total bandwidth to/from this memory (bytes/s)
system.mem_ctrls0.bw_total::switch_cpus_1.inst         9258                       # Total bandwidth to/from this memory (bytes/s)
system.mem_ctrls0.bw_total::switch_cpus_1.data       358275                       # Total bandwidth to/from this memory (bytes/s)
system.mem_ctrls0.bw_total::total             3361780                       # Total bandwidth to/from this memory (bytes/s)
system.mem_ctrls0.readReqs                      46836                       # Number of read requests accepted
system.mem_ctrls0.writeReqs                      2548                       # Number of write requests accepted
system.mem_ctrls0.readBursts                    46836                       # Number of DRAM read bursts, including those serviced by the write queue
system.mem_ctrls0.writeBursts                    2548                       # Number of DRAM write bursts, including those merged in the write queue
system.mem_ctrls0.bytesReadDRAM               2989568                       # Total number of bytes read from DRAM
system.mem_ctrls0.bytesReadWrQ                   7936                       # Total number of bytes read from write queue
system.mem_ctrls0.bytesWritten                 161792                       # Total number of bytes written to DRAM
system.mem_ctrls0.bytesReadSys                2997504                       # Total read bytes from the system interface side
system.mem_ctrls0.bytesWrittenSys              163072                       # Total written bytes from the system interface side
system.mem_ctrls0.servicedByWrQ                   124                       # Number of DRAM read bursts serviced by the write queue
system.mem_ctrls0.mergedWrBursts                    0                       # Number of DRAM write bursts merged with an existing one
system.mem_ctrls0.neitherReadNorWriteReqs            0                       # Number of requests that are neither read nor write
system.mem_ctrls0.perBankRdBursts::0             3120                       # Per bank write bursts
system.mem_ctrls0.perBankRdBursts::1             3050                       # Per bank write bursts
system.mem_ctrls0.perBankRdBursts::2             2873                       # Per bank write bursts
system.mem_ctrls0.perBankRdBursts::3             2750                       # Per bank write bursts
system.mem_ctrls0.perBankRdBursts::4             2682                       # Per bank write bursts
system.mem_ctrls0.perBankRdBursts::5             2784                       # Per bank write bursts
system.mem_ctrls0.perBankRdBursts::6             2987                       # Per bank write bursts
system.mem_ctrls0.perBankRdBursts::7             3179                       # Per bank write bursts
system.mem_ctrls0.perBankRdBursts::8             3325                       # Per bank write bursts
system.mem_ctrls0.perBankRdBursts::9             3305                       # Per bank write bursts
system.mem_ctrls0.perBankRdBursts::10            2843                       # Per bank write bursts
system.mem_ctrls0.perBankRdBursts::11            2563                       # Per bank write bursts
system.mem_ctrls0.perBankRdBursts::12            2696                       # Per bank write bursts
system.mem_ctrls0.perBankRdBursts::13            2699                       # Per bank write bursts
system.mem_ctrls0.perBankRdBursts::14            2961                       # Per bank write bursts
system.mem_ctrls0.perBankRdBursts::15            2895                       # Per bank write bursts
system.mem_ctrls0.perBankWrBursts::0              308                       # Per bank write bursts
system.mem_ctrls0.perBankWrBursts::1              268                       # Per bank write bursts
system.mem_ctrls0.perBankWrBursts::2              110                       # Per bank write bursts
system.mem_ctrls0.perBankWrBursts::3               88                       # Per bank write bursts
system.mem_ctrls0.perBankWrBursts::4               77                       # Per bank write bursts
system.mem_ctrls0.perBankWrBursts::5               12                       # Per bank write bursts
system.mem_ctrls0.perBankWrBursts::6              110                       # Per bank write bursts
system.mem_ctrls0.perBankWrBursts::7              133                       # Per bank write bursts
system.mem_ctrls0.perBankWrBursts::8              225                       # Per bank write bursts
system.mem_ctrls0.perBankWrBursts::9              362                       # Per bank write bursts
system.mem_ctrls0.perBankWrBursts::10             123                       # Per bank write bursts
system.mem_ctrls0.perBankWrBursts::11              73                       # Per bank write bursts
system.mem_ctrls0.perBankWrBursts::12              55                       # Per bank write bursts
system.mem_ctrls0.perBankWrBursts::13              48                       # Per bank write bursts
system.mem_ctrls0.perBankWrBursts::14             255                       # Per bank write bursts
system.mem_ctrls0.perBankWrBursts::15             281                       # Per bank write bursts
system.mem_ctrls0.numRdRetry                        0                       # Number of times read queue was full causing retry
system.mem_ctrls0.numWrRetry                        0                       # Number of times write queue was full causing retry
system.mem_ctrls0.totGap                 940149454788                       # Total gap between requests
system.mem_ctrls0.readPktSize::0                    0                       # Read request sizes (log2)
system.mem_ctrls0.readPktSize::1                    0                       # Read request sizes (log2)
system.mem_ctrls0.readPktSize::2                    0                       # Read request sizes (log2)
system.mem_ctrls0.readPktSize::3                    0                       # Read request sizes (log2)
system.mem_ctrls0.readPktSize::4                    0                       # Read request sizes (log2)
system.mem_ctrls0.readPktSize::5                    0                       # Read request sizes (log2)
system.mem_ctrls0.readPktSize::6                46836                       # Read request sizes (log2)
system.mem_ctrls0.writePktSize::0                   0                       # Write request sizes (log2)
system.mem_ctrls0.writePktSize::1                   0                       # Write request sizes (log2)
system.mem_ctrls0.writePktSize::2                   0                       # Write request sizes (log2)
system.mem_ctrls0.writePktSize::3                   0                       # Write request sizes (log2)
system.mem_ctrls0.writePktSize::4                   0                       # Write request sizes (log2)
system.mem_ctrls0.writePktSize::5                   0                       # Write request sizes (log2)
system.mem_ctrls0.writePktSize::6                2548                       # Write request sizes (log2)
system.mem_ctrls0.rdQLenPdf::0                  45552                       # What read queue length does an incoming req see
system.mem_ctrls0.rdQLenPdf::1                   1150                       # What read queue length does an incoming req see
system.mem_ctrls0.rdQLenPdf::2                      7                       # What read queue length does an incoming req see
system.mem_ctrls0.rdQLenPdf::3                      2                       # What read queue length does an incoming req see
system.mem_ctrls0.rdQLenPdf::4                      1                       # What read queue length does an incoming req see
system.mem_ctrls0.rdQLenPdf::5                      0                       # What read queue length does an incoming req see
system.mem_ctrls0.rdQLenPdf::6                      0                       # What read queue length does an incoming req see
system.mem_ctrls0.rdQLenPdf::7                      0                       # What read queue length does an incoming req see
system.mem_ctrls0.rdQLenPdf::8                      0                       # What read queue length does an incoming req see
system.mem_ctrls0.rdQLenPdf::9                      0                       # What read queue length does an incoming req see
system.mem_ctrls0.rdQLenPdf::10                     0                       # What read queue length does an incoming req see
system.mem_ctrls0.rdQLenPdf::11                     0                       # What read queue length does an incoming req see
system.mem_ctrls0.rdQLenPdf::12                     0                       # What read queue length does an incoming req see
system.mem_ctrls0.rdQLenPdf::13                     0                       # What read queue length does an incoming req see
system.mem_ctrls0.rdQLenPdf::14                     0                       # What read queue length does an incoming req see
system.mem_ctrls0.rdQLenPdf::15                     0                       # What read queue length does an incoming req see
system.mem_ctrls0.rdQLenPdf::16                     0                       # What read queue length does an incoming req see
system.mem_ctrls0.rdQLenPdf::17                     0                       # What read queue length does an incoming req see
system.mem_ctrls0.rdQLenPdf::18                     0                       # What read queue length does an incoming req see
system.mem_ctrls0.rdQLenPdf::19                     0                       # What read queue length does an incoming req see
system.mem_ctrls0.rdQLenPdf::20                     0                       # What read queue length does an incoming req see
system.mem_ctrls0.rdQLenPdf::21                     0                       # What read queue length does an incoming req see
system.mem_ctrls0.rdQLenPdf::22                     0                       # What read queue length does an incoming req see
system.mem_ctrls0.rdQLenPdf::23                     0                       # What read queue length does an incoming req see
system.mem_ctrls0.rdQLenPdf::24                     0                       # What read queue length does an incoming req see
system.mem_ctrls0.rdQLenPdf::25                     0                       # What read queue length does an incoming req see
system.mem_ctrls0.rdQLenPdf::26                     0                       # What read queue length does an incoming req see
system.mem_ctrls0.rdQLenPdf::27                     0                       # What read queue length does an incoming req see
system.mem_ctrls0.rdQLenPdf::28                     0                       # What read queue length does an incoming req see
system.mem_ctrls0.rdQLenPdf::29                     0                       # What read queue length does an incoming req see
system.mem_ctrls0.rdQLenPdf::30                     0                       # What read queue length does an incoming req see
system.mem_ctrls0.rdQLenPdf::31                     0                       # What read queue length does an incoming req see
system.mem_ctrls0.wrQLenPdf::0                      2                       # What write queue length does an incoming req see
system.mem_ctrls0.wrQLenPdf::1                      2                       # What write queue length does an incoming req see
system.mem_ctrls0.wrQLenPdf::2                      2                       # What write queue length does an incoming req see
system.mem_ctrls0.wrQLenPdf::3                      2                       # What write queue length does an incoming req see
system.mem_ctrls0.wrQLenPdf::4                      2                       # What write queue length does an incoming req see
system.mem_ctrls0.wrQLenPdf::5                      2                       # What write queue length does an incoming req see
system.mem_ctrls0.wrQLenPdf::6                      2                       # What write queue length does an incoming req see
system.mem_ctrls0.wrQLenPdf::7                      2                       # What write queue length does an incoming req see
system.mem_ctrls0.wrQLenPdf::8                      2                       # What write queue length does an incoming req see
system.mem_ctrls0.wrQLenPdf::9                      2                       # What write queue length does an incoming req see
system.mem_ctrls0.wrQLenPdf::10                     2                       # What write queue length does an incoming req see
system.mem_ctrls0.wrQLenPdf::11                     2                       # What write queue length does an incoming req see
system.mem_ctrls0.wrQLenPdf::12                     2                       # What write queue length does an incoming req see
system.mem_ctrls0.wrQLenPdf::13                     2                       # What write queue length does an incoming req see
system.mem_ctrls0.wrQLenPdf::14                     2                       # What write queue length does an incoming req see
system.mem_ctrls0.wrQLenPdf::15                    75                       # What write queue length does an incoming req see
system.mem_ctrls0.wrQLenPdf::16                    80                       # What write queue length does an incoming req see
system.mem_ctrls0.wrQLenPdf::17                   127                       # What write queue length does an incoming req see
system.mem_ctrls0.wrQLenPdf::18                   143                       # What write queue length does an incoming req see
system.mem_ctrls0.wrQLenPdf::19                   152                       # What write queue length does an incoming req see
system.mem_ctrls0.wrQLenPdf::20                   148                       # What write queue length does an incoming req see
system.mem_ctrls0.wrQLenPdf::21                   150                       # What write queue length does an incoming req see
system.mem_ctrls0.wrQLenPdf::22                   150                       # What write queue length does an incoming req see
system.mem_ctrls0.wrQLenPdf::23                   149                       # What write queue length does an incoming req see
system.mem_ctrls0.wrQLenPdf::24                   151                       # What write queue length does an incoming req see
system.mem_ctrls0.wrQLenPdf::25                   150                       # What write queue length does an incoming req see
system.mem_ctrls0.wrQLenPdf::26                   147                       # What write queue length does an incoming req see
system.mem_ctrls0.wrQLenPdf::27                   150                       # What write queue length does an incoming req see
system.mem_ctrls0.wrQLenPdf::28                   151                       # What write queue length does an incoming req see
system.mem_ctrls0.wrQLenPdf::29                   150                       # What write queue length does an incoming req see
system.mem_ctrls0.wrQLenPdf::30                   148                       # What write queue length does an incoming req see
system.mem_ctrls0.wrQLenPdf::31                   147                       # What write queue length does an incoming req see
system.mem_ctrls0.wrQLenPdf::32                   147                       # What write queue length does an incoming req see
system.mem_ctrls0.wrQLenPdf::33                     3                       # What write queue length does an incoming req see
system.mem_ctrls0.wrQLenPdf::34                     0                       # What write queue length does an incoming req see
system.mem_ctrls0.wrQLenPdf::35                     0                       # What write queue length does an incoming req see
system.mem_ctrls0.wrQLenPdf::36                     0                       # What write queue length does an incoming req see
system.mem_ctrls0.wrQLenPdf::37                     0                       # What write queue length does an incoming req see
system.mem_ctrls0.wrQLenPdf::38                     0                       # What write queue length does an incoming req see
system.mem_ctrls0.wrQLenPdf::39                     0                       # What write queue length does an incoming req see
system.mem_ctrls0.wrQLenPdf::40                     0                       # What write queue length does an incoming req see
system.mem_ctrls0.wrQLenPdf::41                     0                       # What write queue length does an incoming req see
system.mem_ctrls0.wrQLenPdf::42                     0                       # What write queue length does an incoming req see
system.mem_ctrls0.wrQLenPdf::43                     0                       # What write queue length does an incoming req see
system.mem_ctrls0.wrQLenPdf::44                     0                       # What write queue length does an incoming req see
system.mem_ctrls0.wrQLenPdf::45                     0                       # What write queue length does an incoming req see
system.mem_ctrls0.wrQLenPdf::46                     0                       # What write queue length does an incoming req see
system.mem_ctrls0.wrQLenPdf::47                     0                       # What write queue length does an incoming req see
system.mem_ctrls0.wrQLenPdf::48                     0                       # What write queue length does an incoming req see
system.mem_ctrls0.wrQLenPdf::49                     0                       # What write queue length does an incoming req see
system.mem_ctrls0.wrQLenPdf::50                     0                       # What write queue length does an incoming req see
system.mem_ctrls0.wrQLenPdf::51                     0                       # What write queue length does an incoming req see
system.mem_ctrls0.wrQLenPdf::52                     0                       # What write queue length does an incoming req see
system.mem_ctrls0.wrQLenPdf::53                     0                       # What write queue length does an incoming req see
system.mem_ctrls0.wrQLenPdf::54                     0                       # What write queue length does an incoming req see
system.mem_ctrls0.wrQLenPdf::55                     0                       # What write queue length does an incoming req see
system.mem_ctrls0.wrQLenPdf::56                     0                       # What write queue length does an incoming req see
system.mem_ctrls0.wrQLenPdf::57                     0                       # What write queue length does an incoming req see
system.mem_ctrls0.wrQLenPdf::58                     0                       # What write queue length does an incoming req see
system.mem_ctrls0.wrQLenPdf::59                     0                       # What write queue length does an incoming req see
system.mem_ctrls0.wrQLenPdf::60                     0                       # What write queue length does an incoming req see
system.mem_ctrls0.wrQLenPdf::61                     0                       # What write queue length does an incoming req see
system.mem_ctrls0.wrQLenPdf::62                     0                       # What write queue length does an incoming req see
system.mem_ctrls0.wrQLenPdf::63                     0                       # What write queue length does an incoming req see
system.mem_ctrls0.bytesPerActivate::samples        23962                       # Bytes accessed per row activation
system.mem_ctrls0.bytesPerActivate::mean   131.472164                       # Bytes accessed per row activation
system.mem_ctrls0.bytesPerActivate::gmean   114.788396                       # Bytes accessed per row activation
system.mem_ctrls0.bytesPerActivate::stdev   116.580527                       # Bytes accessed per row activation
system.mem_ctrls0.bytesPerActivate::0-127         5651     23.58%     23.58% # Bytes accessed per row activation
system.mem_ctrls0.bytesPerActivate::128-255        17495     73.01%     96.59% # Bytes accessed per row activation
system.mem_ctrls0.bytesPerActivate::256-383          178      0.74%     97.34% # Bytes accessed per row activation
system.mem_ctrls0.bytesPerActivate::384-511          122      0.51%     97.85% # Bytes accessed per row activation
system.mem_ctrls0.bytesPerActivate::512-639           88      0.37%     98.21% # Bytes accessed per row activation
system.mem_ctrls0.bytesPerActivate::640-767           75      0.31%     98.53% # Bytes accessed per row activation
system.mem_ctrls0.bytesPerActivate::768-895           57      0.24%     98.76% # Bytes accessed per row activation
system.mem_ctrls0.bytesPerActivate::896-1023           66      0.28%     99.04% # Bytes accessed per row activation
system.mem_ctrls0.bytesPerActivate::1024-1151          230      0.96%    100.00% # Bytes accessed per row activation
system.mem_ctrls0.bytesPerActivate::total        23962                       # Bytes accessed per row activation
system.mem_ctrls0.rdPerTurnAround::samples          147                       # Reads before turning the bus around for writes
system.mem_ctrls0.rdPerTurnAround::mean    317.768707                       # Reads before turning the bus around for writes
system.mem_ctrls0.rdPerTurnAround::stdev  3197.923841                       # Reads before turning the bus around for writes
system.mem_ctrls0.rdPerTurnAround::0-2047          146     99.32%     99.32% # Reads before turning the bus around for writes
system.mem_ctrls0.rdPerTurnAround::36864-38911            1      0.68%    100.00% # Reads before turning the bus around for writes
system.mem_ctrls0.rdPerTurnAround::total          147                       # Reads before turning the bus around for writes
system.mem_ctrls0.wrPerTurnAround::samples          147                       # Writes before turning the bus around for reads
system.mem_ctrls0.wrPerTurnAround::mean     17.197279                       # Writes before turning the bus around for reads
system.mem_ctrls0.wrPerTurnAround::gmean    17.159628                       # Writes before turning the bus around for reads
system.mem_ctrls0.wrPerTurnAround::stdev     1.144609                       # Writes before turning the bus around for reads
system.mem_ctrls0.wrPerTurnAround::16              65     44.22%     44.22% # Writes before turning the bus around for reads
system.mem_ctrls0.wrPerTurnAround::17               6      4.08%     48.30% # Writes before turning the bus around for reads
system.mem_ctrls0.wrPerTurnAround::18              59     40.14%     88.44% # Writes before turning the bus around for reads
system.mem_ctrls0.wrPerTurnAround::19              16     10.88%     99.32% # Writes before turning the bus around for reads
system.mem_ctrls0.wrPerTurnAround::20               1      0.68%    100.00% # Writes before turning the bus around for reads
system.mem_ctrls0.wrPerTurnAround::total          147                       # Writes before turning the bus around for reads
system.mem_ctrls0.totQLat                  9169438540                       # Total ticks spent queuing
system.mem_ctrls0.totMemAccLat            10045288540                       # Total ticks spent from burst creation until serviced by the DRAM
system.mem_ctrls0.totBusLat                 233560000                       # Total ticks spent in databus transfers
system.mem_ctrls0.avgQLat                   196297.28                       # Average queueing delay per DRAM burst
system.mem_ctrls0.avgBusLat                   5000.00                       # Average bus latency per DRAM burst
system.mem_ctrls0.avgMemAccLat              215047.28                       # Average memory access latency per DRAM burst
system.mem_ctrls0.avgRdBW                        3.18                       # Average DRAM read bandwidth in MiByte/s
system.mem_ctrls0.avgWrBW                        0.17                       # Average achieved write bandwidth in MiByte/s
system.mem_ctrls0.avgRdBWSys                     3.19                       # Average system read bandwidth in MiByte/s
system.mem_ctrls0.avgWrBWSys                     0.17                       # Average system write bandwidth in MiByte/s
system.mem_ctrls0.peakBW                     12800.00                       # Theoretical peak bandwidth in MiByte/s
system.mem_ctrls0.busUtil                        0.03                       # Data bus utilization in percentage
system.mem_ctrls0.busUtilRead                    0.02                       # Data bus utilization in percentage for reads
system.mem_ctrls0.busUtilWrite                   0.00                       # Data bus utilization in percentage for writes
system.mem_ctrls0.avgRdQLen                      1.01                       # Average read queue length when enqueuing
system.mem_ctrls0.avgWrQLen                      7.67                       # Average write queue length when enqueuing
system.mem_ctrls0.readRowHits                   23568                       # Number of row buffer hits during reads
system.mem_ctrls0.writeRowHits                   1702                       # Number of row buffer hits during writes
system.mem_ctrls0.readRowHitRate                50.45                       # Row buffer hit rate for reads
system.mem_ctrls0.writeRowHitRate               66.80                       # Row buffer hit rate for writes
system.mem_ctrls0.avgGap                  19037531.48                       # Average gap between requests
system.mem_ctrls0.pageHitRate                   51.30                       # Row buffer hit rate, read and write combined
system.mem_ctrls0_0.actEnergy                89471340                       # Energy for activate commands per rank (pJ)
system.mem_ctrls0_0.preEnergy                47539965                       # Energy for precharge commands per rank (pJ)
system.mem_ctrls0_0.readEnergy              167254500                       # Energy for read commands per rank (pJ)
system.mem_ctrls0_0.writeEnergy               5773320                       # Energy for write commands per rank (pJ)
system.mem_ctrls0_0.refreshEnergy        15480323040.000004                       # Energy for refresh commands per rank (pJ)
system.mem_ctrls0_0.actBackEnergy          3326044620                       # Energy for active background per rank (pJ)
system.mem_ctrls0_0.preBackEnergy          1007064480                       # Energy for precharge background per rank (pJ)
system.mem_ctrls0_0.actPowerDownEnergy    30447639270                       # Energy for active power-down per rank (pJ)
system.mem_ctrls0_0.prePowerDownEnergy    24341645280                       # Energy for precharge power-down per rank (pJ)
system.mem_ctrls0_0.selfRefreshEnergy    196290144015                       # Energy for self refresh per rank (pJ)
system.mem_ctrls0_0.totalEnergy          271217116920                       # Total energy per rank (pJ)
system.mem_ctrls0_0.averagePower           288.482969                       # Core power per rank (mW)
system.mem_ctrls0_0.totalIdleTime        930201570110                       # Total Idle time Per DRAM Rank
system.mem_ctrls0_0.memoryStateTime::IDLE   2126711316                       # Time in different power states
system.mem_ctrls0_0.memoryStateTime::REF   6595322000                       # Time in different power states
system.mem_ctrls0_0.memoryStateTime::SREF 800040479022                       # Time in different power states
system.mem_ctrls0_0.memoryStateTime::PRE_PDN  63390036708                       # Time in different power states
system.mem_ctrls0_0.memoryStateTime::ACT   1225886660                       # Time in different power states
system.mem_ctrls0_0.memoryStateTime::ACT_PDN  66771054380                       # Time in different power states
system.mem_ctrls0_1.actEnergy                81674460                       # Energy for activate commands per rank (pJ)
system.mem_ctrls0_1.preEnergy                43395825                       # Energy for precharge commands per rank (pJ)
system.mem_ctrls0_1.readEnergy              166269180                       # Energy for read commands per rank (pJ)
system.mem_ctrls0_1.writeEnergy               7422840                       # Energy for write commands per rank (pJ)
system.mem_ctrls0_1.refreshEnergy        16619865600.000004                       # Energy for refresh commands per rank (pJ)
system.mem_ctrls0_1.actBackEnergy          3515157510                       # Energy for active background per rank (pJ)
system.mem_ctrls0_1.preBackEnergy          1095360960                       # Energy for precharge background per rank (pJ)
system.mem_ctrls0_1.actPowerDownEnergy    31790423040                       # Energy for active power-down per rank (pJ)
system.mem_ctrls0_1.prePowerDownEnergy    26327002080                       # Energy for precharge power-down per rank (pJ)
system.mem_ctrls0_1.selfRefreshEnergy    194620633800                       # Energy for self refresh per rank (pJ)
system.mem_ctrls0_1.totalEnergy          274281924345                       # Total energy per rank (pJ)
system.mem_ctrls0_1.averagePower           291.742882                       # Core power per rank (mW)
system.mem_ctrls0_1.totalIdleTime        929555762218                       # Total Idle time Per DRAM Rank
system.mem_ctrls0_1.memoryStateTime::IDLE   2320909611                       # Time in different power states
system.mem_ctrls0_1.memoryStateTime::REF   7082036000                       # Time in different power states
system.mem_ctrls0_1.memoryStateTime::SREF 791279795504                       # Time in different power states
system.mem_ctrls0_1.memoryStateTime::PRE_PDN  68560116448                       # Time in different power states
system.mem_ctrls0_1.memoryStateTime::ACT   1190782257                       # Time in different power states
system.mem_ctrls0_1.memoryStateTime::ACT_PDN  69715850266                       # Time in different power states
system.mem_ctrls1.pwrStateResidencyTicks::UNDEFINED 310788031374495                       # Cumulative time (in ticks) in various power states
system.mem_ctrls1.bytes_read::cpu.inst            128                       # Number of bytes read from this memory
system.mem_ctrls1.bytes_read::switch_cpus.inst        25088                       # Number of bytes read from this memory
system.mem_ctrls1.bytes_read::switch_cpus.data      2625600                       # Number of bytes read from this memory
system.mem_ctrls1.bytes_read::switch_cpus_1.inst         8256                       # Number of bytes read from this memory
system.mem_ctrls1.bytes_read::switch_cpus_1.data       335232                       # Number of bytes read from this memory
system.mem_ctrls1.bytes_read::total           2994304                       # Number of bytes read from this memory
system.mem_ctrls1.bytes_inst_read::cpu.inst          128                       # Number of instructions bytes read from this memory
system.mem_ctrls1.bytes_inst_read::switch_cpus.inst        25088                       # Number of instructions bytes read from this memory
system.mem_ctrls1.bytes_inst_read::switch_cpus_1.inst         8256                       # Number of instructions bytes read from this memory
system.mem_ctrls1.bytes_inst_read::total        33472                       # Number of instructions bytes read from this memory
system.mem_ctrls1.bytes_written::writebacks       160896                       # Number of bytes written to this memory
system.mem_ctrls1.bytes_written::total         160896                       # Number of bytes written to this memory
system.mem_ctrls1.num_reads::cpu.inst               2                       # Number of read requests responded to by this memory
system.mem_ctrls1.num_reads::switch_cpus.inst          392                       # Number of read requests responded to by this memory
system.mem_ctrls1.num_reads::switch_cpus.data        41025                       # Number of read requests responded to by this memory
system.mem_ctrls1.num_reads::switch_cpus_1.inst          129                       # Number of read requests responded to by this memory
system.mem_ctrls1.num_reads::switch_cpus_1.data         5238                       # Number of read requests responded to by this memory
system.mem_ctrls1.num_reads::total              46786                       # Number of read requests responded to by this memory
system.mem_ctrls1.num_writes::writebacks         2514                       # Number of write requests responded to by this memory
system.mem_ctrls1.num_writes::total              2514                       # Number of write requests responded to by this memory
system.mem_ctrls1.bw_read::cpu.inst               136                       # Total read bandwidth from this memory (bytes/s)
system.mem_ctrls1.bw_read::switch_cpus.inst        26685                       # Total read bandwidth from this memory (bytes/s)
system.mem_ctrls1.bw_read::switch_cpus.data      2792747                       # Total read bandwidth from this memory (bytes/s)
system.mem_ctrls1.bw_read::switch_cpus_1.inst         8782                       # Total read bandwidth from this memory (bytes/s)
system.mem_ctrls1.bw_read::switch_cpus_1.data       356573                       # Total read bandwidth from this memory (bytes/s)
system.mem_ctrls1.bw_read::total              3184923                       # Total read bandwidth from this memory (bytes/s)
system.mem_ctrls1.bw_inst_read::cpu.inst          136                       # Instruction read bandwidth from this memory (bytes/s)
system.mem_ctrls1.bw_inst_read::switch_cpus.inst        26685                       # Instruction read bandwidth from this memory (bytes/s)
system.mem_ctrls1.bw_inst_read::switch_cpus_1.inst         8782                       # Instruction read bandwidth from this memory (bytes/s)
system.mem_ctrls1.bw_inst_read::total           35603                       # Instruction read bandwidth from this memory (bytes/s)
system.mem_ctrls1.bw_write::writebacks         171139                       # Write bandwidth from this memory (bytes/s)
system.mem_ctrls1.bw_write::total              171139                       # Write bandwidth from this memory (bytes/s)
system.mem_ctrls1.bw_total::writebacks         171139                       # Total bandwidth to/from this memory (bytes/s)
system.mem_ctrls1.bw_total::cpu.inst              136                       # Total bandwidth to/from this memory (bytes/s)
system.mem_ctrls1.bw_total::switch_cpus.inst        26685                       # Total bandwidth to/from this memory (bytes/s)
system.mem_ctrls1.bw_total::switch_cpus.data      2792747                       # Total bandwidth to/from this memory (bytes/s)
system.mem_ctrls1.bw_total::switch_cpus_1.inst         8782                       # Total bandwidth to/from this memory (bytes/s)
system.mem_ctrls1.bw_total::switch_cpus_1.data       356573                       # Total bandwidth to/from this memory (bytes/s)
system.mem_ctrls1.bw_total::total             3356062                       # Total bandwidth to/from this memory (bytes/s)
system.mem_ctrls1.readReqs                      46786                       # Number of read requests accepted
system.mem_ctrls1.writeReqs                      2514                       # Number of write requests accepted
system.mem_ctrls1.readBursts                    46786                       # Number of DRAM read bursts, including those serviced by the write queue
system.mem_ctrls1.writeBursts                    2514                       # Number of DRAM write bursts, including those merged in the write queue
system.mem_ctrls1.bytesReadDRAM               2986368                       # Total number of bytes read from DRAM
system.mem_ctrls1.bytesReadWrQ                   7936                       # Total number of bytes read from write queue
system.mem_ctrls1.bytesWritten                 159232                       # Total number of bytes written to DRAM
system.mem_ctrls1.bytesReadSys                2994304                       # Total read bytes from the system interface side
system.mem_ctrls1.bytesWrittenSys              160896                       # Total written bytes from the system interface side
system.mem_ctrls1.servicedByWrQ                   124                       # Number of DRAM read bursts serviced by the write queue
system.mem_ctrls1.mergedWrBursts                    0                       # Number of DRAM write bursts merged with an existing one
system.mem_ctrls1.neitherReadNorWriteReqs            0                       # Number of requests that are neither read nor write
system.mem_ctrls1.perBankRdBursts::0             3117                       # Per bank write bursts
system.mem_ctrls1.perBankRdBursts::1             3058                       # Per bank write bursts
system.mem_ctrls1.perBankRdBursts::2             2858                       # Per bank write bursts
system.mem_ctrls1.perBankRdBursts::3             2744                       # Per bank write bursts
system.mem_ctrls1.perBankRdBursts::4             2666                       # Per bank write bursts
system.mem_ctrls1.perBankRdBursts::5             2784                       # Per bank write bursts
system.mem_ctrls1.perBankRdBursts::6             3029                       # Per bank write bursts
system.mem_ctrls1.perBankRdBursts::7             3156                       # Per bank write bursts
system.mem_ctrls1.perBankRdBursts::8             3336                       # Per bank write bursts
system.mem_ctrls1.perBankRdBursts::9             3284                       # Per bank write bursts
system.mem_ctrls1.perBankRdBursts::10            2857                       # Per bank write bursts
system.mem_ctrls1.perBankRdBursts::11            2556                       # Per bank write bursts
system.mem_ctrls1.perBankRdBursts::12            2686                       # Per bank write bursts
system.mem_ctrls1.perBankRdBursts::13            2694                       # Per bank write bursts
system.mem_ctrls1.perBankRdBursts::14            2920                       # Per bank write bursts
system.mem_ctrls1.perBankRdBursts::15            2917                       # Per bank write bursts
system.mem_ctrls1.perBankWrBursts::0              333                       # Per bank write bursts
system.mem_ctrls1.perBankWrBursts::1              260                       # Per bank write bursts
system.mem_ctrls1.perBankWrBursts::2              125                       # Per bank write bursts
system.mem_ctrls1.perBankWrBursts::3               88                       # Per bank write bursts
system.mem_ctrls1.perBankWrBursts::4               60                       # Per bank write bursts
system.mem_ctrls1.perBankWrBursts::5               16                       # Per bank write bursts
system.mem_ctrls1.perBankWrBursts::6              118                       # Per bank write bursts
system.mem_ctrls1.perBankWrBursts::7              128                       # Per bank write bursts
system.mem_ctrls1.perBankWrBursts::8              207                       # Per bank write bursts
system.mem_ctrls1.perBankWrBursts::9              324                       # Per bank write bursts
system.mem_ctrls1.perBankWrBursts::10             124                       # Per bank write bursts
system.mem_ctrls1.perBankWrBursts::11              64                       # Per bank write bursts
system.mem_ctrls1.perBankWrBursts::12              55                       # Per bank write bursts
system.mem_ctrls1.perBankWrBursts::13              34                       # Per bank write bursts
system.mem_ctrls1.perBankWrBursts::14             252                       # Per bank write bursts
system.mem_ctrls1.perBankWrBursts::15             300                       # Per bank write bursts
system.mem_ctrls1.numRdRetry                        0                       # Number of times read queue was full causing retry
system.mem_ctrls1.numWrRetry                        0                       # Number of times write queue was full causing retry
system.mem_ctrls1.totGap                 940149353889                       # Total gap between requests
system.mem_ctrls1.readPktSize::0                    0                       # Read request sizes (log2)
system.mem_ctrls1.readPktSize::1                    0                       # Read request sizes (log2)
system.mem_ctrls1.readPktSize::2                    0                       # Read request sizes (log2)
system.mem_ctrls1.readPktSize::3                    0                       # Read request sizes (log2)
system.mem_ctrls1.readPktSize::4                    0                       # Read request sizes (log2)
system.mem_ctrls1.readPktSize::5                    0                       # Read request sizes (log2)
system.mem_ctrls1.readPktSize::6                46786                       # Read request sizes (log2)
system.mem_ctrls1.writePktSize::0                   0                       # Write request sizes (log2)
system.mem_ctrls1.writePktSize::1                   0                       # Write request sizes (log2)
system.mem_ctrls1.writePktSize::2                   0                       # Write request sizes (log2)
system.mem_ctrls1.writePktSize::3                   0                       # Write request sizes (log2)
system.mem_ctrls1.writePktSize::4                   0                       # Write request sizes (log2)
system.mem_ctrls1.writePktSize::5                   0                       # Write request sizes (log2)
system.mem_ctrls1.writePktSize::6                2514                       # Write request sizes (log2)
system.mem_ctrls1.rdQLenPdf::0                  45235                       # What read queue length does an incoming req see
system.mem_ctrls1.rdQLenPdf::1                   1427                       # What read queue length does an incoming req see
system.mem_ctrls1.rdQLenPdf::2                      0                       # What read queue length does an incoming req see
system.mem_ctrls1.rdQLenPdf::3                      0                       # What read queue length does an incoming req see
system.mem_ctrls1.rdQLenPdf::4                      0                       # What read queue length does an incoming req see
system.mem_ctrls1.rdQLenPdf::5                      0                       # What read queue length does an incoming req see
system.mem_ctrls1.rdQLenPdf::6                      0                       # What read queue length does an incoming req see
system.mem_ctrls1.rdQLenPdf::7                      0                       # What read queue length does an incoming req see
system.mem_ctrls1.rdQLenPdf::8                      0                       # What read queue length does an incoming req see
system.mem_ctrls1.rdQLenPdf::9                      0                       # What read queue length does an incoming req see
system.mem_ctrls1.rdQLenPdf::10                     0                       # What read queue length does an incoming req see
system.mem_ctrls1.rdQLenPdf::11                     0                       # What read queue length does an incoming req see
system.mem_ctrls1.rdQLenPdf::12                     0                       # What read queue length does an incoming req see
system.mem_ctrls1.rdQLenPdf::13                     0                       # What read queue length does an incoming req see
system.mem_ctrls1.rdQLenPdf::14                     0                       # What read queue length does an incoming req see
system.mem_ctrls1.rdQLenPdf::15                     0                       # What read queue length does an incoming req see
system.mem_ctrls1.rdQLenPdf::16                     0                       # What read queue length does an incoming req see
system.mem_ctrls1.rdQLenPdf::17                     0                       # What read queue length does an incoming req see
system.mem_ctrls1.rdQLenPdf::18                     0                       # What read queue length does an incoming req see
system.mem_ctrls1.rdQLenPdf::19                     0                       # What read queue length does an incoming req see
system.mem_ctrls1.rdQLenPdf::20                     0                       # What read queue length does an incoming req see
system.mem_ctrls1.rdQLenPdf::21                     0                       # What read queue length does an incoming req see
system.mem_ctrls1.rdQLenPdf::22                     0                       # What read queue length does an incoming req see
system.mem_ctrls1.rdQLenPdf::23                     0                       # What read queue length does an incoming req see
system.mem_ctrls1.rdQLenPdf::24                     0                       # What read queue length does an incoming req see
system.mem_ctrls1.rdQLenPdf::25                     0                       # What read queue length does an incoming req see
system.mem_ctrls1.rdQLenPdf::26                     0                       # What read queue length does an incoming req see
system.mem_ctrls1.rdQLenPdf::27                     0                       # What read queue length does an incoming req see
system.mem_ctrls1.rdQLenPdf::28                     0                       # What read queue length does an incoming req see
system.mem_ctrls1.rdQLenPdf::29                     0                       # What read queue length does an incoming req see
system.mem_ctrls1.rdQLenPdf::30                     0                       # What read queue length does an incoming req see
system.mem_ctrls1.rdQLenPdf::31                     0                       # What read queue length does an incoming req see
system.mem_ctrls1.wrQLenPdf::0                      2                       # What write queue length does an incoming req see
system.mem_ctrls1.wrQLenPdf::1                      2                       # What write queue length does an incoming req see
system.mem_ctrls1.wrQLenPdf::2                      2                       # What write queue length does an incoming req see
system.mem_ctrls1.wrQLenPdf::3                      2                       # What write queue length does an incoming req see
system.mem_ctrls1.wrQLenPdf::4                      2                       # What write queue length does an incoming req see
system.mem_ctrls1.wrQLenPdf::5                      2                       # What write queue length does an incoming req see
system.mem_ctrls1.wrQLenPdf::6                      2                       # What write queue length does an incoming req see
system.mem_ctrls1.wrQLenPdf::7                      2                       # What write queue length does an incoming req see
system.mem_ctrls1.wrQLenPdf::8                      2                       # What write queue length does an incoming req see
system.mem_ctrls1.wrQLenPdf::9                      2                       # What write queue length does an incoming req see
system.mem_ctrls1.wrQLenPdf::10                     2                       # What write queue length does an incoming req see
system.mem_ctrls1.wrQLenPdf::11                     2                       # What write queue length does an incoming req see
system.mem_ctrls1.wrQLenPdf::12                     2                       # What write queue length does an incoming req see
system.mem_ctrls1.wrQLenPdf::13                     2                       # What write queue length does an incoming req see
system.mem_ctrls1.wrQLenPdf::14                     2                       # What write queue length does an incoming req see
system.mem_ctrls1.wrQLenPdf::15                    80                       # What write queue length does an incoming req see
system.mem_ctrls1.wrQLenPdf::16                    85                       # What write queue length does an incoming req see
system.mem_ctrls1.wrQLenPdf::17                   119                       # What write queue length does an incoming req see
system.mem_ctrls1.wrQLenPdf::18                   143                       # What write queue length does an incoming req see
system.mem_ctrls1.wrQLenPdf::19                   146                       # What write queue length does an incoming req see
system.mem_ctrls1.wrQLenPdf::20                   150                       # What write queue length does an incoming req see
system.mem_ctrls1.wrQLenPdf::21                   149                       # What write queue length does an incoming req see
system.mem_ctrls1.wrQLenPdf::22                   147                       # What write queue length does an incoming req see
system.mem_ctrls1.wrQLenPdf::23                   149                       # What write queue length does an incoming req see
system.mem_ctrls1.wrQLenPdf::24                   148                       # What write queue length does an incoming req see
system.mem_ctrls1.wrQLenPdf::25                   144                       # What write queue length does an incoming req see
system.mem_ctrls1.wrQLenPdf::26                   145                       # What write queue length does an incoming req see
system.mem_ctrls1.wrQLenPdf::27                   147                       # What write queue length does an incoming req see
system.mem_ctrls1.wrQLenPdf::28                   147                       # What write queue length does an incoming req see
system.mem_ctrls1.wrQLenPdf::29                   146                       # What write queue length does an incoming req see
system.mem_ctrls1.wrQLenPdf::30                   148                       # What write queue length does an incoming req see
system.mem_ctrls1.wrQLenPdf::31                   142                       # What write queue length does an incoming req see
system.mem_ctrls1.wrQLenPdf::32                   143                       # What write queue length does an incoming req see
system.mem_ctrls1.wrQLenPdf::33                     5                       # What write queue length does an incoming req see
system.mem_ctrls1.wrQLenPdf::34                     1                       # What write queue length does an incoming req see
system.mem_ctrls1.wrQLenPdf::35                     0                       # What write queue length does an incoming req see
system.mem_ctrls1.wrQLenPdf::36                     0                       # What write queue length does an incoming req see
system.mem_ctrls1.wrQLenPdf::37                     0                       # What write queue length does an incoming req see
system.mem_ctrls1.wrQLenPdf::38                     0                       # What write queue length does an incoming req see
system.mem_ctrls1.wrQLenPdf::39                     0                       # What write queue length does an incoming req see
system.mem_ctrls1.wrQLenPdf::40                     0                       # What write queue length does an incoming req see
system.mem_ctrls1.wrQLenPdf::41                     0                       # What write queue length does an incoming req see
system.mem_ctrls1.wrQLenPdf::42                     0                       # What write queue length does an incoming req see
system.mem_ctrls1.wrQLenPdf::43                     0                       # What write queue length does an incoming req see
system.mem_ctrls1.wrQLenPdf::44                     0                       # What write queue length does an incoming req see
system.mem_ctrls1.wrQLenPdf::45                     0                       # What write queue length does an incoming req see
system.mem_ctrls1.wrQLenPdf::46                     0                       # What write queue length does an incoming req see
system.mem_ctrls1.wrQLenPdf::47                     0                       # What write queue length does an incoming req see
system.mem_ctrls1.wrQLenPdf::48                     0                       # What write queue length does an incoming req see
system.mem_ctrls1.wrQLenPdf::49                     0                       # What write queue length does an incoming req see
system.mem_ctrls1.wrQLenPdf::50                     0                       # What write queue length does an incoming req see
system.mem_ctrls1.wrQLenPdf::51                     0                       # What write queue length does an incoming req see
system.mem_ctrls1.wrQLenPdf::52                     0                       # What write queue length does an incoming req see
system.mem_ctrls1.wrQLenPdf::53                     0                       # What write queue length does an incoming req see
system.mem_ctrls1.wrQLenPdf::54                     0                       # What write queue length does an incoming req see
system.mem_ctrls1.wrQLenPdf::55                     0                       # What write queue length does an incoming req see
system.mem_ctrls1.wrQLenPdf::56                     0                       # What write queue length does an incoming req see
system.mem_ctrls1.wrQLenPdf::57                     0                       # What write queue length does an incoming req see
system.mem_ctrls1.wrQLenPdf::58                     0                       # What write queue length does an incoming req see
system.mem_ctrls1.wrQLenPdf::59                     0                       # What write queue length does an incoming req see
system.mem_ctrls1.wrQLenPdf::60                     0                       # What write queue length does an incoming req see
system.mem_ctrls1.wrQLenPdf::61                     0                       # What write queue length does an incoming req see
system.mem_ctrls1.wrQLenPdf::62                     0                       # What write queue length does an incoming req see
system.mem_ctrls1.wrQLenPdf::63                     0                       # What write queue length does an incoming req see
system.mem_ctrls1.bytesPerActivate::samples        23926                       # Bytes accessed per row activation
system.mem_ctrls1.bytesPerActivate::mean   131.442615                       # Bytes accessed per row activation
system.mem_ctrls1.bytesPerActivate::gmean   114.775865                       # Bytes accessed per row activation
system.mem_ctrls1.bytesPerActivate::stdev   116.879541                       # Bytes accessed per row activation
system.mem_ctrls1.bytesPerActivate::0-127         5639     23.57%     23.57% # Bytes accessed per row activation
system.mem_ctrls1.bytesPerActivate::128-255        17474     73.03%     96.60% # Bytes accessed per row activation
system.mem_ctrls1.bytesPerActivate::256-383          185      0.77%     97.38% # Bytes accessed per row activation
system.mem_ctrls1.bytesPerActivate::384-511          121      0.51%     97.88% # Bytes accessed per row activation
system.mem_ctrls1.bytesPerActivate::512-639           82      0.34%     98.22% # Bytes accessed per row activation
system.mem_ctrls1.bytesPerActivate::640-767           72      0.30%     98.52% # Bytes accessed per row activation
system.mem_ctrls1.bytesPerActivate::768-895           51      0.21%     98.74% # Bytes accessed per row activation
system.mem_ctrls1.bytesPerActivate::896-1023           61      0.25%     98.99% # Bytes accessed per row activation
system.mem_ctrls1.bytesPerActivate::1024-1151          241      1.01%    100.00% # Bytes accessed per row activation
system.mem_ctrls1.bytesPerActivate::total        23926                       # Bytes accessed per row activation
system.mem_ctrls1.rdPerTurnAround::samples          143                       # Reads before turning the bus around for writes
system.mem_ctrls1.rdPerTurnAround::mean    326.307692                       # Reads before turning the bus around for writes
system.mem_ctrls1.rdPerTurnAround::stdev  3249.471245                       # Reads before turning the bus around for writes
system.mem_ctrls1.rdPerTurnAround::0-2047          142     99.30%     99.30% # Reads before turning the bus around for writes
system.mem_ctrls1.rdPerTurnAround::36864-38911            1      0.70%    100.00% # Reads before turning the bus around for writes
system.mem_ctrls1.rdPerTurnAround::total          143                       # Reads before turning the bus around for writes
system.mem_ctrls1.wrPerTurnAround::samples          143                       # Writes before turning the bus around for reads
system.mem_ctrls1.wrPerTurnAround::mean     17.398601                       # Writes before turning the bus around for reads
system.mem_ctrls1.wrPerTurnAround::gmean    17.349516                       # Writes before turning the bus around for reads
system.mem_ctrls1.wrPerTurnAround::stdev     1.338171                       # Writes before turning the bus around for reads
system.mem_ctrls1.wrPerTurnAround::16              56     39.16%     39.16% # Writes before turning the bus around for reads
system.mem_ctrls1.wrPerTurnAround::17               5      3.50%     42.66% # Writes before turning the bus around for reads
system.mem_ctrls1.wrPerTurnAround::18              61     42.66%     85.31% # Writes before turning the bus around for reads
system.mem_ctrls1.wrPerTurnAround::19              17     11.89%     97.20% # Writes before turning the bus around for reads
system.mem_ctrls1.wrPerTurnAround::20               2      1.40%     98.60% # Writes before turning the bus around for reads
system.mem_ctrls1.wrPerTurnAround::22               1      0.70%     99.30% # Writes before turning the bus around for reads
system.mem_ctrls1.wrPerTurnAround::24               1      0.70%    100.00% # Writes before turning the bus around for reads
system.mem_ctrls1.wrPerTurnAround::total          143                       # Writes before turning the bus around for reads
system.mem_ctrls1.totQLat                  9124197258                       # Total ticks spent queuing
system.mem_ctrls1.totMemAccLat             9999109758                       # Total ticks spent from burst creation until serviced by the DRAM
system.mem_ctrls1.totBusLat                 233310000                       # Total ticks spent in databus transfers
system.mem_ctrls1.avgQLat                   195538.07                       # Average queueing delay per DRAM burst
system.mem_ctrls1.avgBusLat                   5000.00                       # Average bus latency per DRAM burst
system.mem_ctrls1.avgMemAccLat              214288.07                       # Average memory access latency per DRAM burst
system.mem_ctrls1.avgRdBW                        3.18                       # Average DRAM read bandwidth in MiByte/s
system.mem_ctrls1.avgWrBW                        0.17                       # Average achieved write bandwidth in MiByte/s
system.mem_ctrls1.avgRdBWSys                     3.18                       # Average system read bandwidth in MiByte/s
system.mem_ctrls1.avgWrBWSys                     0.17                       # Average system write bandwidth in MiByte/s
system.mem_ctrls1.peakBW                     12800.00                       # Theoretical peak bandwidth in MiByte/s
system.mem_ctrls1.busUtil                        0.03                       # Data bus utilization in percentage
system.mem_ctrls1.busUtilRead                    0.02                       # Data bus utilization in percentage for reads
system.mem_ctrls1.busUtilWrite                   0.00                       # Data bus utilization in percentage for writes
system.mem_ctrls1.avgRdQLen                      1.00                       # Average read queue length when enqueuing
system.mem_ctrls1.avgWrQLen                      6.88                       # Average write queue length when enqueuing
system.mem_ctrls1.readRowHits                   23533                       # Number of row buffer hits during reads
system.mem_ctrls1.writeRowHits                   1684                       # Number of row buffer hits during writes
system.mem_ctrls1.readRowHitRate                50.43                       # Row buffer hit rate for reads
system.mem_ctrls1.writeRowHitRate               66.98                       # Row buffer hit rate for writes
system.mem_ctrls1.avgGap                  19069966.61                       # Average gap between requests
system.mem_ctrls1.pageHitRate                   51.28                       # Row buffer hit rate, read and write combined
system.mem_ctrls1_0.actEnergy                89449920                       # Energy for activate commands per rank (pJ)
system.mem_ctrls1_0.preEnergy                47524785                       # Energy for precharge commands per rank (pJ)
system.mem_ctrls1_0.readEnergy              167161680                       # Energy for read commands per rank (pJ)
system.mem_ctrls1_0.writeEnergy               5888160                       # Energy for write commands per rank (pJ)
system.mem_ctrls1_0.refreshEnergy        15445903200.000004                       # Energy for refresh commands per rank (pJ)
system.mem_ctrls1_0.actBackEnergy          3318614100                       # Energy for active background per rank (pJ)
system.mem_ctrls1_0.preBackEnergy           997902720                       # Energy for precharge background per rank (pJ)
system.mem_ctrls1_0.actPowerDownEnergy    30397384650                       # Energy for active power-down per rank (pJ)
system.mem_ctrls1_0.prePowerDownEnergy    24304296000                       # Energy for precharge power-down per rank (pJ)
system.mem_ctrls1_0.selfRefreshEnergy    196335449115                       # Energy for self refresh per rank (pJ)
system.mem_ctrls1_0.totalEnergy          271123521000                       # Total energy per rank (pJ)
system.mem_ctrls1_0.averagePower           288.383415                       # Core power per rank (mW)
system.mem_ctrls1_0.totalIdleTime        930242294276                       # Total Idle time Per DRAM Rank
system.mem_ctrls1_0.memoryStateTime::IDLE   2102925851                       # Time in different power states
system.mem_ctrls1_0.memoryStateTime::REF   6580552000                       # Time in different power states
system.mem_ctrls1_0.memoryStateTime::SREF 800288599346                       # Time in different power states
system.mem_ctrls1_0.memoryStateTime::PRE_PDN  63292592519                       # Time in different power states
system.mem_ctrls1_0.memoryStateTime::ACT   1223717959                       # Time in different power states
system.mem_ctrls1_0.memoryStateTime::ACT_PDN  66661102411                       # Time in different power states
system.mem_ctrls1_1.actEnergy                81431700                       # Energy for activate commands per rank (pJ)
system.mem_ctrls1_1.preEnergy                43274385                       # Energy for precharge commands per rank (pJ)
system.mem_ctrls1_1.readEnergy              166005000                       # Energy for read commands per rank (pJ)
system.mem_ctrls1_1.writeEnergy               7099200                       # Energy for write commands per rank (pJ)
system.mem_ctrls1_1.refreshEnergy        16572538320.000004                       # Energy for refresh commands per rank (pJ)
system.mem_ctrls1_1.actBackEnergy          3507297780                       # Energy for active background per rank (pJ)
system.mem_ctrls1_1.preBackEnergy          1090170720                       # Energy for precharge background per rank (pJ)
system.mem_ctrls1_1.actPowerDownEnergy    31742251200                       # Energy for active power-down per rank (pJ)
system.mem_ctrls1_1.prePowerDownEnergy    26257262400                       # Energy for precharge power-down per rank (pJ)
system.mem_ctrls1_1.selfRefreshEnergy    194675242710                       # Energy for self refresh per rank (pJ)
system.mem_ctrls1_1.totalEnergy          274156283835                       # Total energy per rank (pJ)
system.mem_ctrls1_1.averagePower           291.609244                       # Core power per rank (mW)
system.mem_ctrls1_1.totalIdleTime        929588601449                       # Total Idle time Per DRAM Rank
system.mem_ctrls1_1.memoryStateTime::IDLE   2307111254                       # Time in different power states
system.mem_ctrls1_1.memoryStateTime::REF   7061722000                       # Time in different power states
system.mem_ctrls1_1.memoryStateTime::SREF 791599973315                       # Time in different power states
system.mem_ctrls1_1.memoryStateTime::PRE_PDN  68378255003                       # Time in different power states
system.mem_ctrls1_1.memoryStateTime::ACT   1192055383                       # Time in different power states
system.mem_ctrls1_1.memoryStateTime::ACT_PDN  69610373131                       # Time in different power states
system.pwrStateResidencyTicks::UNDEFINED 310788031374495                       # Cumulative time (in ticks) in various power states
system.cpu.branchPred.lookups                       1                       # Number of BP lookups
system.cpu.branchPred.condPredicted                 0                       # Number of conditional branches predicted
system.cpu.branchPred.condIncorrect                 1                       # Number of conditional branches incorrect
system.cpu.branchPred.BTBLookups                    0                       # Number of BTB lookups
system.cpu.branchPred.BTBHits                       0                       # Number of BTB hits
system.cpu.branchPred.BTBCorrect                    0                       # Number of correct BTB predictions (this stat may not work properly.
system.cpu.branchPred.BTBHitPct                   nan                       # BTB Hit Percentage
system.cpu.branchPred.usedRAS                       1                       # Number of times the RAS was used to get a target.
system.cpu.branchPred.RASInCorrect                  1                       # Number of incorrect RAS predictions.
system.cpu.branchPred.indirectLookups               0                       # Number of indirect predictor lookups.
system.cpu.branchPred.indirectHits                  0                       # Number of indirect target hits.
system.cpu.branchPred.indirectMisses                0                       # Number of indirect misses.
system.cpu.branchPredindirectMispredicted            0                       # Number of mispredicted indirect branches.
system.cpu_voltage_domain.voltage                   1                       # Voltage in Volts
system.cpu_clk_domain.clock                       333                       # Clock period in ticks
system.cpu.dtb.fetch_hits                           0                       # ITB hits
system.cpu.dtb.fetch_misses                         0                       # ITB misses
system.cpu.dtb.fetch_acv                            0                       # ITB acv
system.cpu.dtb.fetch_accesses                       0                       # ITB accesses
system.cpu.dtb.read_hits                            0                       # DTB read hits
system.cpu.dtb.read_misses                          0                       # DTB read misses
system.cpu.dtb.read_acv                             0                       # DTB read access violations
system.cpu.dtb.read_accesses                        0                       # DTB read accesses
system.cpu.dtb.write_hits                           0                       # DTB write hits
system.cpu.dtb.write_misses                         0                       # DTB write misses
system.cpu.dtb.write_acv                            0                       # DTB write access violations
system.cpu.dtb.write_accesses                       0                       # DTB write accesses
system.cpu.dtb.data_hits                            0                       # DTB hits
system.cpu.dtb.data_misses                          0                       # DTB misses
system.cpu.dtb.data_acv                             0                       # DTB access violations
system.cpu.dtb.data_accesses                        0                       # DTB accesses
system.cpu.itb.fetch_hits                           4                       # ITB hits
system.cpu.itb.fetch_misses                         1                       # ITB misses
system.cpu.itb.fetch_acv                            0                       # ITB acv
system.cpu.itb.fetch_accesses                       5                       # ITB accesses
system.cpu.itb.read_hits                            0                       # DTB read hits
system.cpu.itb.read_misses                          0                       # DTB read misses
system.cpu.itb.read_acv                             0                       # DTB read access violations
system.cpu.itb.read_accesses                        0                       # DTB read accesses
system.cpu.itb.write_hits                           0                       # DTB write hits
system.cpu.itb.write_misses                         0                       # DTB write misses
system.cpu.itb.write_acv                            0                       # DTB write access violations
system.cpu.itb.write_accesses                       0                       # DTB write accesses
system.cpu.itb.data_hits                            0                       # DTB hits
system.cpu.itb.data_misses                          0                       # DTB misses
system.cpu.itb.data_acv                             0                       # DTB access violations
system.cpu.itb.data_accesses                        0                       # DTB accesses
system.cpu.workload.num_syscalls                    0                       # Number of system calls
system.cpu.pwrStateResidencyTicks::ON    940149490086                       # Cumulative time (in ticks) in various power states
system.cpu.numCycles                              696                       # number of cpu cycles simulated
system.cpu.numWorkItemsStarted                      0                       # number of work items this cpu started
system.cpu.numWorkItemsCompleted                    0                       # number of work items this cpu completed
system.cpu.fetch.icacheStallCycles                 27                       # Number of cycles fetch is stalled on an Icache miss
system.cpu.fetch.Insts                              7                       # Number of instructions fetch has processed
system.cpu.fetch.Branches                           1                       # Number of branches that fetch encountered
system.cpu.fetch.predictedBranches                  1                       # Number of branches that fetch has predicted taken
system.cpu.fetch.Cycles                             2                       # Number of cycles fetch has run and was not squashing or blocked
system.cpu.fetch.SquashCycles                       5                       # Number of cycles fetch has spent squashing
system.cpu.fetch.PendingDrainCycles                 3                       # Number of cycles fetch has spent waiting on pipes to drain
system.cpu.fetch.PendingTrapStallCycles             6                       # Number of stall cycles due to pending traps
system.cpu.fetch.CacheLines                         4                       # Number of cache lines fetched
system.cpu.fetch.IcacheSquashes                     2                       # Number of outstanding Icache misses that were squashed
system.cpu.fetch.rateDist::samples                 40                       # Number of instructions fetched each cycle (Total)
system.cpu.fetch.rateDist::mean              0.175000                       # Number of instructions fetched each cycle (Total)
system.cpu.fetch.rateDist::stdev             0.957762                       # Number of instructions fetched each cycle (Total)
system.cpu.fetch.rateDist::underflows               0      0.00%      0.00% # Number of instructions fetched each cycle (Total)
system.cpu.fetch.rateDist::0                       38     95.00%     95.00% # Number of instructions fetched each cycle (Total)
system.cpu.fetch.rateDist::1                        1      2.50%     97.50% # Number of instructions fetched each cycle (Total)
system.cpu.fetch.rateDist::2                        0      0.00%     97.50% # Number of instructions fetched each cycle (Total)
system.cpu.fetch.rateDist::3                        0      0.00%     97.50% # Number of instructions fetched each cycle (Total)
system.cpu.fetch.rateDist::4                        0      0.00%     97.50% # Number of instructions fetched each cycle (Total)
system.cpu.fetch.rateDist::5                        0      0.00%     97.50% # Number of instructions fetched each cycle (Total)
system.cpu.fetch.rateDist::6                        1      2.50%    100.00% # Number of instructions fetched each cycle (Total)
system.cpu.fetch.rateDist::7                        0      0.00%    100.00% # Number of instructions fetched each cycle (Total)
system.cpu.fetch.rateDist::8                        0      0.00%    100.00% # Number of instructions fetched each cycle (Total)
system.cpu.fetch.rateDist::overflows                0      0.00%    100.00% # Number of instructions fetched each cycle (Total)
system.cpu.fetch.rateDist::min_value                0                       # Number of instructions fetched each cycle (Total)
system.cpu.fetch.rateDist::max_value                6                       # Number of instructions fetched each cycle (Total)
system.cpu.fetch.rateDist::total                   40                       # Number of instructions fetched each cycle (Total)
system.cpu.fetch.branchRate                  0.001437                       # Number of branch fetches per cycle
system.cpu.fetch.rate                        0.010057                       # Number of inst fetches per cycle
system.cpu.decode.IdleCycles                       35                       # Number of cycles decode is idle
system.cpu.decode.RunCycles                         2                       # Number of cycles decode is running
[...]
system.switch_cpus_1.iq.int_inst_queue_writes     89982566                       # Number of integer instruction queue writes
system.switch_cpus_1.iq.int_inst_queue_wakeup_accesses     83857411                       # Number of integer instruction queue wakeup accesses
system.switch_cpus_1.iq.fp_inst_queue_reads    266415744                       # Number of floating instruction queue reads
system.switch_cpus_1.iq.fp_inst_queue_writes    142595633                       # Number of floating instruction queue writes
system.switch_cpus_1.iq.fp_inst_queue_wakeup_accesses    125844287                       # Number of floating instruction queue wakeup accesses
system.switch_cpus_1.iq.int_alu_accesses     84877758                       # Number of integer alu accesses
system.switch_cpus_1.iq.fp_alu_accesses     135651260                       # Number of floating point alu accesses
system.switch_cpus_1.iew.lsq.thread0.forwLoads      4085991                       # Number of loads that had data forwarded from stores
system.switch_cpus_1.iew.lsq.thread0.invAddrLoads            0                       # Number of loads ignored due to an invalid address
system.switch_cpus_1.iew.lsq.thread0.squashedLoads      3355090                       # Number of loads squashed
system.switch_cpus_1.iew.lsq.thread0.ignoredResponses         4361                       # Number of memory responses ignored because the instruction is squashed
system.switch_cpus_1.iew.lsq.thread0.memOrderViolation         5883                       # Number of memory ordering violations
system.switch_cpus_1.iew.lsq.thread0.squashedStores       565054                       # Number of stores squashed
system.switch_cpus_1.iew.lsq.thread0.invAddrSwpfs            0                       # Number of software prefetches ignored due to an invalid address
system.switch_cpus_1.iew.lsq.thread0.blockedLoads            0                       # Number of blocked loads due to partial load-store forwarding
system.switch_cpus_1.iew.lsq.thread0.rescheduledLoads            3                       # Number of loads that were rescheduled
system.switch_cpus_1.iew.lsq.thread0.cacheBlocked      5160358                       # Number of times an access to memory failed due to the cache being blocked
system.switch_cpus_1.iew.iewIdleCycles              0                       # Number of cycles IEW is idle
system.switch_cpus_1.iew.iewSquashCycles       223349                       # Number of cycles IEW is squashing
system.switch_cpus_1.iew.iewBlockCycles       6775380                       # Number of cycles IEW is blocking
system.switch_cpus_1.iew.iewUnblockCycles      2606731                       # Number of cycles IEW is unblocking
system.switch_cpus_1.iew.iewDispatchedInsts    222334150                       # Number of instructions dispatched to IQ
system.switch_cpus_1.iew.iewDispSquashedInsts         2127                       # Number of squashed instructions skipped by dispatch
system.switch_cpus_1.iew.iewDispLoadInsts     33526909                       # Number of dispatched load instructions
system.switch_cpus_1.iew.iewDispStoreInsts     13371846                       # Number of dispatched store instructions
system.switch_cpus_1.iew.iewDispNonSpecInsts          886                       # Number of dispatched non-speculative instructions
system.switch_cpus_1.iew.iewIQFullEvents       956382                       # Number of times the IQ has become full, causing a stall
system.switch_cpus_1.iew.iewLSQFullEvents      1417322                       # Number of times the LSQ has become full, causing a stall
system.switch_cpus_1.iew.memOrderViolationEvents         5883                       # Number of memory order violations
system.switch_cpus_1.iew.predictedTakenIncorrect       117512                       # Number of branches that were predicted taken incorrectly
system.switch_cpus_1.iew.predictedNotTakenIncorrect       103560                       # Number of branches that were predicted not taken incorrectly
system.switch_cpus_1.iew.branchMispredicts       221072                       # Number of branch mispredicts detected at execute
system.switch_cpus_1.iew.iewExecutedInsts    214598293                       # Number of executed instructions
system.switch_cpus_1.iew.iewExecLoadInsts     37412256                       # Number of load instructions executed
system.switch_cpus_1.iew.iewExecSquashedInsts       266523                       # Number of squashed instructions skipped in execute
system.switch_cpus_1.iew.exec_swp                   0                       # number of swp insts executed
system.switch_cpus_1.iew.exec_nop             6047936                       # number of nop insts executed
system.switch_cpus_1.iew.exec_refs           50464402                       # number of memory reference insts executed
system.switch_cpus_1.iew.exec_branches       17893926                       # Number of branches executed
system.switch_cpus_1.iew.exec_stores         13052146                       # Number of stores executed
system.switch_cpus_1.iew.exec_rate           1.981019                       # Inst execution rate
system.switch_cpus_1.iew.wb_sent            209827934                       # cumulative count of insts sent to commit
system.switch_cpus_1.iew.wb_count           209701698                       # cumulative count of insts written-back
system.switch_cpus_1.iew.wb_producers       157468921                       # num instructions producing a value
system.switch_cpus_1.iew.wb_consumers       226947827                       # num instructions consuming a value
system.switch_cpus_1.iew.wb_rate             1.935817                       # insts written-back per cycle
system.switch_cpus_1.iew.wb_fanout           0.693855                       # average fanout of values written-back
system.switch_cpus_1.commit.commitSquashedInsts     16712644                       # The number of squashed insts skipped by commit
system.switch_cpus_1.commit.commitNonSpecStalls         1060                       # The number of times commit has been forced to stall to communicate backwards
system.switch_cpus_1.commit.branchMispredicts       212639                       # The number of times a branch was mispredicted
system.switch_cpus_1.commit.committed_per_cycle::samples    105990134                       # Number of insts commited each cycle
system.switch_cpus_1.commit.committed_per_cycle::mean     1.939688                       # Number of insts commited each cycle
system.switch_cpus_1.commit.committed_per_cycle::stdev     2.932193                       # Number of insts commited each cycle
system.switch_cpus_1.commit.committed_per_cycle::underflows            0      0.00%      0.00% # Number of insts commited each cycle
system.switch_cpus_1.commit.committed_per_cycle::0     53584057     50.56%     50.56% # Number of insts commited each cycle
system.switch_cpus_1.commit.committed_per_cycle::1     22032960     20.79%     71.34% # Number of insts commited each cycle
system.switch_cpus_1.commit.committed_per_cycle::2      4725322      4.46%     75.80% # Number of insts commited each cycle
system.switch_cpus_1.commit.committed_per_cycle::3      2908094      2.74%     78.55% # Number of insts commited each cycle
system.switch_cpus_1.commit.committed_per_cycle::4      2151770      2.03%     80.58% # Number of insts commited each cycle
system.switch_cpus_1.commit.committed_per_cycle::5       919841      0.87%     81.44% # Number of insts commited each cycle
system.switch_cpus_1.commit.committed_per_cycle::6      2165294      2.04%     83.49% # Number of insts commited each cycle
system.switch_cpus_1.commit.committed_per_cycle::7       840525      0.79%     84.28% # Number of insts commited each cycle
system.switch_cpus_1.commit.committed_per_cycle::8     16662271     15.72%    100.00% # Number of insts commited each cycle
system.switch_cpus_1.commit.committed_per_cycle::overflows            0      0.00%    100.00% # Number of insts commited each cycle
system.switch_cpus_1.commit.committed_per_cycle::min_value            0                       # Number of insts commited each cycle
system.switch_cpus_1.commit.committed_per_cycle::max_value            8                       # Number of insts commited each cycle
system.switch_cpus_1.commit.committed_per_cycle::total    105990134                       # Number of insts commited each cycle
system.switch_cpus_1.commit.committedInsts    205587778                       # Number of instructions committed
system.switch_cpus_1.commit.committedOps    205587778                       # Number of ops (including micro ops) committed
system.switch_cpus_1.commit.swp_count               0                       # Number of s/w prefetches committed
system.switch_cpus_1.commit.refs             42978589                       # Number of memory references committed
system.switch_cpus_1.commit.loads            30171801                       # Number of loads committed
system.switch_cpus_1.commit.membars               530                       # Number of memory barriers committed
system.switch_cpus_1.commit.branches         16841234                       # Number of branches committed
system.switch_cpus_1.commit.fp_insts        121009933                       # Number of committed floating point instructions.
system.switch_cpus_1.commit.int_insts       111742899                       # Number of committed integer instructions.
system.switch_cpus_1.commit.function_calls      1810278                       # Number of function calls committed.
system.switch_cpus_1.commit.op_class_0::No_OpClass      5587774      2.72%      2.72% # Class of committed instruction
system.switch_cpus_1.commit.op_class_0::IntAlu     66796729     32.49%     35.21% # Class of committed instruction
system.switch_cpus_1.commit.op_class_0::IntMult       802505      0.39%     35.60% # Class of committed instruction
system.switch_cpus_1.commit.op_class_0::IntDiv            0      0.00%     35.60% # Class of committed instruction
system.switch_cpus_1.commit.op_class_0::FloatAdd     57123504     27.79%     63.38% # Class of committed instruction
system.switch_cpus_1.commit.op_class_0::FloatCmp      4994353      2.43%     65.81% # Class of committed instruction
system.switch_cpus_1.commit.op_class_0::FloatCvt      3095320      1.51%     67.32% # Class of committed instruction
system.switch_cpus_1.commit.op_class_0::FloatMult     24208317     11.78%     79.09% # Class of committed instruction
system.switch_cpus_1.commit.op_class_0::FloatMultAcc            0      0.00%     79.09% # Class of committed instruction
system.switch_cpus_1.commit.op_class_0::FloatDiv          116      0.00%     79.09% # Class of committed instruction
system.switch_cpus_1.commit.op_class_0::FloatMisc            0      0.00%     79.09% # Class of committed instruction
system.switch_cpus_1.commit.op_class_0::FloatSqrt           41      0.00%     79.09% # Class of committed instruction
system.switch_cpus_1.commit.op_class_0::SimdAdd            0      0.00%     79.09% # Class of committed instruction
system.switch_cpus_1.commit.op_class_0::SimdAddAcc            0      0.00%     79.09% # Class of committed instruction
system.switch_cpus_1.commit.op_class_0::SimdAlu            0      0.00%     79.09% # Class of committed instruction
system.switch_cpus_1.commit.op_class_0::SimdCmp            0      0.00%     79.09% # Class of committed instruction
system.switch_cpus_1.commit.op_class_0::SimdCvt            0      0.00%     79.09% # Class of committed instruction
system.switch_cpus_1.commit.op_class_0::SimdMisc            0      0.00%     79.09% # Class of committed instruction
system.switch_cpus_1.commit.op_class_0::SimdMult            0      0.00%     79.09% # Class of committed instruction
system.switch_cpus_1.commit.op_class_0::SimdMultAcc            0      0.00%     79.09% # Class of committed instruction
system.switch_cpus_1.commit.op_class_0::SimdShift            0      0.00%     79.09% # Class of committed instruction
system.switch_cpus_1.commit.op_class_0::SimdShiftAcc            0      0.00%     79.09% # Class of committed instruction
system.switch_cpus_1.commit.op_class_0::SimdSqrt            0      0.00%     79.09% # Class of committed instruction
system.switch_cpus_1.commit.op_class_0::SimdFloatAdd            0      0.00%     79.09% # Class of committed instruction
system.switch_cpus_1.commit.op_class_0::SimdFloatAlu            0      0.00%     79.09% # Class of committed instruction
system.switch_cpus_1.commit.op_class_0::SimdFloatCmp            0      0.00%     79.09% # Class of committed instruction
system.switch_cpus_1.commit.op_class_0::SimdFloatCvt            0      0.00%     79.09% # Class of committed instruction
system.switch_cpus_1.commit.op_class_0::SimdFloatDiv            0      0.00%     79.09% # Class of committed instruction
system.switch_cpus_1.commit.op_class_0::SimdFloatMisc            0      0.00%     79.09% # Class of committed instruction
system.switch_cpus_1.commit.op_class_0::SimdFloatMult            0      0.00%     79.09% # Class of committed instruction
system.switch_cpus_1.commit.op_class_0::SimdFloatMultAcc            0      0.00%     79.09% # Class of committed instruction
system.switch_cpus_1.commit.op_class_0::SimdFloatSqrt            0      0.00%     79.09% # Class of committed instruction
system.switch_cpus_1.commit.op_class_0::MemRead      6947129      3.38%     82.47% # Class of committed instruction
system.switch_cpus_1.commit.op_class_0::MemWrite      4443708      2.16%     84.64% # Class of committed instruction
system.switch_cpus_1.commit.op_class_0::FloatMemRead     23225202     11.30%     95.93% # Class of committed instruction
system.switch_cpus_1.commit.op_class_0::FloatMemWrite      8363080      4.07%    100.00% # Class of committed instruction
system.switch_cpus_1.commit.op_class_0::IprAccess            0      0.00%    100.00% # Class of committed instruction
system.switch_cpus_1.commit.op_class_0::InstPrefetch            0      0.00%    100.00% # Class of committed instruction
system.switch_cpus_1.commit.op_class_0::total    205587778                       # Class of committed instruction
system.switch_cpus_1.commit.bw_lim_events     16662271                       # number cycles where commit BW limit reached
system.switch_cpus_1.rob.rob_reads          311560919                       # The number of ROB reads
system.switch_cpus_1.rob.rob_writes         446847917                       # The number of ROB writes
system.switch_cpus_1.timesIdled                  1477                       # Number of times that the entire CPU went into an idle state and unscheduled itself
system.switch_cpus_1.idleCycles                105765                       # Total number of cycles that the CPU has spent unscheduled due to idling
system.switch_cpus_1.committedInsts         200000004                       # Number of Instructions Simulated
system.switch_cpus_1.committedOps           200000004                       # Number of Ops (including micro ops) Simulated
system.switch_cpus_1.cpi                     0.541636                       # CPI: Cycles Per Instruction
system.switch_cpus_1.cpi_total               0.541636                       # CPI: Total CPI of All Threads
system.switch_cpus_1.ipc                     1.846258                       # IPC: Instructions Per Cycle
system.switch_cpus_1.ipc_total               1.846258                       # IPC: Total IPC of All Threads
system.switch_cpus_1.int_regfile_reads      143573821                       # number of integer regfile reads
system.switch_cpus_1.int_regfile_writes      69460045                       # number of integer regfile writes
system.switch_cpus_1.fp_regfile_reads       186925939                       # number of floating regfile reads
system.switch_cpus_1.fp_regfile_writes      111291706                       # number of floating regfile writes
system.switch_cpus_1.misc_regfile_reads      56348681                       # number of misc regfile reads
system.switch_cpus_1.misc_regfile_writes         1060                       # number of misc regfile writes
system.tol3bus.snoop_filter.tot_requests      6318531                       # Total number of requests made to the snoop filter.
system.tol3bus.snoop_filter.hit_single_requests      3157046                       # Number of requests hitting in the snoop filter with a single holder of the requested data.
system.tol3bus.snoop_filter.hit_multi_requests            0                       # Number of requests hitting in the snoop filter with multiple (>1) holders of the requested data.
system.tol3bus.snoop_filter.tot_snoops            285                       # Total number of snoops made to the snoop filter.
system.tol3bus.snoop_filter.hit_single_snoops          285                       # Number of snoops hitting in the snoop filter with a single holder of the requested data.
system.tol3bus.snoop_filter.hit_multi_snoops            0                       # Number of snoops hitting in the snoop filter with multiple (>1) holders of the requested data.
system.tol3bus.pwrStateResidencyTicks::UNDEFINED 310788031374495                       # Cumulative time (in ticks) in various power states
system.tol3bus.trans_dist::ReadResp           2177070                       # Transaction distribution
system.tol3bus.trans_dist::WritebackDirty      2354911                       # Transaction distribution
system.tol3bus.trans_dist::CleanEvict          828351                       # Transaction distribution
system.tol3bus.trans_dist::ReadExReq           984415                       # Transaction distribution
system.tol3bus.trans_dist::ReadExResp          984415                       # Transaction distribution
system.tol3bus.trans_dist::ReadSharedReq      2177070                       # Transaction distribution
system.tol3bus.pkt_count_system.cpu.l2.mem_side::system.l3.cpu_side      9480016                       # Packet count per connected master and slave (bytes)
system.tol3bus.pkt_size_system.cpu.l2.mem_side::system.l3.cpu_side    352725376                       # Cumulative packet size per connected master and slave (bytes)
system.tol3bus.snoops                           26216                       # Total snoops (count)
system.tol3bus.snoopTraffic                    323968                       # Total snoop traffic (bytes)
system.tol3bus.snoop_fanout::samples          3187701                       # Request fanout histogram
system.tol3bus.snoop_fanout::mean            0.000089                       # Request fanout histogram
system.tol3bus.snoop_fanout::stdev           0.009455                       # Request fanout histogram
system.tol3bus.snoop_fanout::underflows             0      0.00%      0.00% # Request fanout histogram
system.tol3bus.snoop_fanout::0                3187416     99.99%     99.99% # Request fanout histogram
system.tol3bus.snoop_fanout::1                    285      0.01%    100.00% # Request fanout histogram
system.tol3bus.snoop_fanout::overflows              0      0.00%    100.00% # Request fanout histogram
system.tol3bus.snoop_fanout::min_value              0                       # Request fanout histogram
system.tol3bus.snoop_fanout::max_value              1                       # Request fanout histogram
system.tol3bus.snoop_fanout::total            3187701                       # Request fanout histogram
system.tol3bus.reqLayer0.occupancy         2886570540                       # Layer occupancy (ticks)
system.tol3bus.reqLayer0.utilization              0.3                       # Layer utilization (%)
system.tol3bus.respLayer0.occupancy        2105549010                       # Layer occupancy (ticks)
system.tol3bus.respLayer0.utilization             0.2                       # Layer utilization (%)

---------- End Simulation Statistics   ----------
