
---------- Begin Simulation Statistics ----------
sim_seconds                                  2.560360                       # Number of seconds simulated
sim_ticks                                2560360446963                       # Number of ticks simulated
final_tick                               735512801000949                       # Number of ticks from beginning of simulation (restored from checkpoints and never reset)
sim_freq                                 1000000000000                       # Frequency of simulated ticks
host_inst_rate                                 165090                       # Simulator instruction rate (inst/s)
host_op_rate                                   165090                       # Simulator op (including micro ops) rate (op/s)
host_tick_rate                              211344625                       # Simulator tick rate (ticks/s)
host_mem_usage                                2391096                       # Number of bytes of host memory used
host_seconds                                 12114.62                       # Real time elapsed on the host
sim_insts                                  2000000009                       # Number of instructions simulated
sim_ops                                    2000000009                       # Number of ops (including micro ops) simulated
system.voltage_domain.voltage                       1                       # Voltage in Volts
system.clk_domain.clock                          1000                       # Clock period in ticks
system.mem_ctrls0.pwrStateResidencyTicks::UNDEFINED 735512801000949                       # Cumulative time (in ticks) in various power states
system.mem_ctrls0.bytes_read::cpu.inst            128                       # Number of bytes read from this memory
system.mem_ctrls0.bytes_read::cpu.data            128                       # Number of bytes read from this memory
system.mem_ctrls0.bytes_read::switch_cpus.inst        82880                       # Number of bytes read from this memory
system.mem_ctrls0.bytes_read::switch_cpus.data    115587648                       # Number of bytes read from this memory
system.mem_ctrls0.bytes_read::switch_cpus_1.inst       130176                       # Number of bytes read from this memory
system.mem_ctrls0.bytes_read::switch_cpus_1.data    156127744                       # Number of bytes read from this memory
system.mem_ctrls0.bytes_read::total         271928704                       # Number of bytes read from this memory
system.mem_ctrls0.bytes_inst_read::cpu.inst          128                       # Number of instructions bytes read from this memory
system.mem_ctrls0.bytes_inst_read::switch_cpus.inst        82880                       # Number of instructions bytes read from this memory
system.mem_ctrls0.bytes_inst_read::switch_cpus_1.inst       130176                       # Number of instructions bytes read from this memory
system.mem_ctrls0.bytes_inst_read::total       213184                       # Number of instructions bytes read from this memory
system.mem_ctrls0.bytes_written::writebacks     32677824                       # Number of bytes written to this memory
system.mem_ctrls0.bytes_written::total       32677824                       # Number of bytes written to this memory
system.mem_ctrls0.num_reads::cpu.inst               2                       # Number of read requests responded to by this memory
system.mem_ctrls0.num_reads::cpu.data               2                       # Number of read requests responded to by this memory
system.mem_ctrls0.num_reads::switch_cpus.inst         1295                       # Number of read requests responded to by this memory
system.mem_ctrls0.num_reads::switch_cpus.data      1806057                       # Number of read requests responded to by this memory
system.mem_ctrls0.num_reads::switch_cpus_1.inst         2034                       # Number of read requests responded to by this memory
system.mem_ctrls0.num_reads::switch_cpus_1.data      2439496                       # Number of read requests responded to by this memory
system.mem_ctrls0.num_reads::total            4248886                       # Number of read requests responded to by this memory
system.mem_ctrls0.num_writes::writebacks       510591                       # Number of write requests responded to by this memory
system.mem_ctrls0.num_writes::total            510591                       # Number of write requests responded to by this memory
system.mem_ctrls0.bw_read::cpu.inst                50                       # Total read bandwidth from this memory (bytes/s)
system.mem_ctrls0.bw_read::cpu.data                50                       # Total read bandwidth from this memory (bytes/s)
system.mem_ctrls0.bw_read::switch_cpus.inst        32370                       # Total read bandwidth from this memory (bytes/s)
system.mem_ctrls0.bw_read::switch_cpus.data     45145069                       # Total read bandwidth from this memory (bytes/s)
system.mem_ctrls0.bw_read::switch_cpus_1.inst        50843                       # Total read bandwidth from this memory (bytes/s)
system.mem_ctrls0.bw_read::switch_cpus_1.data     60978814                       # Total read bandwidth from this memory (bytes/s)
system.mem_ctrls0.bw_read::total            106207196                       # Total read bandwidth from this memory (bytes/s)
system.mem_ctrls0.bw_inst_read::cpu.inst           50                       # Instruction read bandwidth from this memory (bytes/s)
system.mem_ctrls0.bw_inst_read::switch_cpus.inst        32370                       # Instruction read bandwidth from this memory (bytes/s)
system.mem_ctrls0.bw_inst_read::switch_cpus_1.inst        50843                       # Instruction read bandwidth from this memory (bytes/s)
system.mem_ctrls0.bw_inst_read::total           83263                       # Instruction read bandwidth from this memory (bytes/s)
system.mem_ctrls0.bw_write::writebacks       12762978                       # Write bandwidth from this memory (bytes/s)
system.mem_ctrls0.bw_write::total            12762978                       # Write bandwidth from this memory (bytes/s)
system.mem_ctrls0.bw_total::writebacks       12762978                       # Total bandwidth to/from this memory (bytes/s)
system.mem_ctrls0.bw_total::cpu.inst               50                       # Total bandwidth to/from this memory (bytes/s)
system.mem_ctrls0.bw_total::cpu.data               50                       # Total bandwidth to/from this memory (bytes/s)
system.mem_ctrls0.bw_total::switch_cpus.inst        32370                       # Total bandwidth to/from this memory (bytes/s)
system.mem_ctrls0.bw_total::switch_cpus.data     45145069                       # Total bandwidth to/from this memory (bytes/s)
system.mem_ctrls0.bw_total::switch_cpus_1.inst        50843                       # Total bandwidth to/from this memory (bytes/s)
system.mem_ctrls0.bw_total::switch_cpus_1.data     60978814                       # Total bandwidth to/from this memory (bytes/s)
system.mem_ctrls0.bw_total::total           118970174                       # Total bandwidth to/from this memory (bytes/s)
system.mem_ctrls0.readReqs                    4248886                       # Number of read requests accepted
system.mem_ctrls0.writeReqs                    510591                       # Number of write requests accepted
system.mem_ctrls0.readBursts                  4248886                       # Number of DRAM read bursts, including those serviced by the write queue
system.mem_ctrls0.writeBursts                  510591                       # Number of DRAM write bursts, including those merged in the write queue
system.mem_ctrls0.bytesReadDRAM             271528960                       # Total number of bytes read from DRAM
system.mem_ctrls0.bytesReadWrQ                 399744                       # Total number of bytes read from write queue
system.mem_ctrls0.bytesWritten               32675648                       # Total number of bytes written to DRAM
system.mem_ctrls0.bytesReadSys              271928704                       # Total read bytes from the system interface side
system.mem_ctrls0.bytesWrittenSys            32677824                       # Total written bytes from the system interface side
system.mem_ctrls0.servicedByWrQ                  6246                       # Number of DRAM read bursts serviced by the write queue
system.mem_ctrls0.mergedWrBursts                   16                       # Number of DRAM write bursts merged with an existing one
system.mem_ctrls0.neitherReadNorWriteReqs            0                       # Number of requests that are neither read nor write
system.mem_ctrls0.perBankRdBursts::0           289518                       # Per bank write bursts
system.mem_ctrls0.perBankRdBursts::1           298013                       # Per bank write bursts
system.mem_ctrls0.perBankRdBursts::2           302004                       # Per bank write bursts
system.mem_ctrls0.perBankRdBursts::3           293060                       # Per bank write bursts
system.mem_ctrls0.perBankRdBursts::4           312447                       # Per bank write bursts
system.mem_ctrls0.perBankRdBursts::5           265298                       # Per bank write bursts
system.mem_ctrls0.perBankRdBursts::6           254613                       # Per bank write bursts
system.mem_ctrls0.perBankRdBursts::7           301316                       # Per bank write bursts
system.mem_ctrls0.perBankRdBursts::8           288995                       # Per bank write bursts
system.mem_ctrls0.perBankRdBursts::9           306180                       # Per bank write bursts
system.mem_ctrls0.perBankRdBursts::10          208780                       # Per bank write bursts
system.mem_ctrls0.perBankRdBursts::11          174515                       # Per bank write bursts
system.mem_ctrls0.perBankRdBursts::12          207359                       # Per bank write bursts
system.mem_ctrls0.perBankRdBursts::13          225233                       # Per bank write bursts
system.mem_ctrls0.perBankRdBursts::14          212750                       # Per bank write bursts
system.mem_ctrls0.perBankRdBursts::15          302559                       # Per bank write bursts
system.mem_ctrls0.perBankWrBursts::0            29171                       # Per bank write bursts
system.mem_ctrls0.perBankWrBursts::1            49563                       # Per bank write bursts
system.mem_ctrls0.perBankWrBursts::2            51798                       # Per bank write bursts
system.mem_ctrls0.perBankWrBursts::3            34628                       # Per bank write bursts
system.mem_ctrls0.perBankWrBursts::4            11217                       # Per bank write bursts
system.mem_ctrls0.perBankWrBursts::5            10601                       # Per bank write bursts
system.mem_ctrls0.perBankWrBursts::6             3558                       # Per bank write bursts
system.mem_ctrls0.perBankWrBursts::7             2856                       # Per bank write bursts
system.mem_ctrls0.perBankWrBursts::8            15855                       # Per bank write bursts
system.mem_ctrls0.perBankWrBursts::9            52334                       # Per bank write bursts
system.mem_ctrls0.perBankWrBursts::10           52073                       # Per bank write bursts
system.mem_ctrls0.perBankWrBursts::11           46194                       # Per bank write bursts
system.mem_ctrls0.perBankWrBursts::12           44317                       # Per bank write bursts
system.mem_ctrls0.perBankWrBursts::13           36494                       # Per bank write bursts
system.mem_ctrls0.perBankWrBursts::14           30056                       # Per bank write bursts
system.mem_ctrls0.perBankWrBursts::15           39842                       # Per bank write bursts
system.mem_ctrls0.numRdRetry                        0                       # Number of times read queue was full causing retry
system.mem_ctrls0.numWrRetry                        0                       # Number of times write queue was full causing retry
system.mem_ctrls0.totGap                 2560360273803                       # Total gap between requests
system.mem_ctrls0.readPktSize::0                    0                       # Read request sizes (log2)
system.mem_ctrls0.readPktSize::1                    0                       # Read request sizes (log2)
system.mem_ctrls0.readPktSize::2                    0                       # Read request sizes (log2)
system.mem_ctrls0.readPktSize::3                    0                       # Read request sizes (log2)
system.mem_ctrls0.readPktSize::4                    0                       # Read request sizes (log2)
system.mem_ctrls0.readPktSize::5                    0                       # Read request sizes (log2)
system.mem_ctrls0.readPktSize::6              4248886                       # Read request sizes (log2)
system.mem_ctrls0.writePktSize::0                   0                       # Write request sizes (log2)
system.mem_ctrls0.writePktSize::1                   0                       # Write request sizes (log2)
system.mem_ctrls0.writePktSize::2                   0                       # Write request sizes (log2)
system.mem_ctrls0.writePktSize::3                   0                       # Write request sizes (log2)
system.mem_ctrls0.writePktSize::4                   0                       # Write request sizes (log2)
system.mem_ctrls0.writePktSize::5                   0                       # Write request sizes (log2)
system.mem_ctrls0.writePktSize::6              510591                       # Write request sizes (log2)
system.mem_ctrls0.rdQLenPdf::0                3765363                       # What read queue length does an incoming req see
system.mem_ctrls0.rdQLenPdf::1                 448867                       # What read queue length does an incoming req see
system.mem_ctrls0.rdQLenPdf::2                  27501                       # What read queue length does an incoming req see
system.mem_ctrls0.rdQLenPdf::3                    902                       # What read queue length does an incoming req see
system.mem_ctrls0.rdQLenPdf::4                      7                       # What read queue length does an incoming req see
system.mem_ctrls0.rdQLenPdf::5                      0                       # What read queue length does an incoming req see
system.mem_ctrls0.rdQLenPdf::6                      0                       # What read queue length does an incoming req see
system.mem_ctrls0.rdQLenPdf::7                      0                       # What read queue length does an incoming req see
system.mem_ctrls0.rdQLenPdf::8                      0                       # What read queue length does an incoming req see
system.mem_ctrls0.rdQLenPdf::9                      0                       # What read queue length does an incoming req see
system.mem_ctrls0.rdQLenPdf::10                     0                       # What read queue length does an incoming req see
system.mem_ctrls0.rdQLenPdf::11                     0                       # What read queue length does an incoming req see
system.mem_ctrls0.rdQLenPdf::12                     0                       # What read queue length does an incoming req see
system.mem_ctrls0.rdQLenPdf::13                     0                       # What read queue length does an incoming req see
system.mem_ctrls0.rdQLenPdf::14                     0                       # What read queue length does an incoming req see
system.mem_ctrls0.rdQLenPdf::15                     0                       # What read queue length does an incoming req see
system.mem_ctrls0.rdQLenPdf::16                     0                       # What read queue length does an incoming req see
system.mem_ctrls0.rdQLenPdf::17                     0                       # What read queue length does an incoming req see
system.mem_ctrls0.rdQLenPdf::18                     0                       # What read queue length does an incoming req see
system.mem_ctrls0.rdQLenPdf::19                     0                       # What read queue length does an incoming req see
system.mem_ctrls0.rdQLenPdf::20                     0                       # What read queue length does an incoming req see
system.mem_ctrls0.rdQLenPdf::21                     0                       # What read queue length does an incoming req see
system.mem_ctrls0.rdQLenPdf::22                     0                       # What read queue length does an incoming req see
system.mem_ctrls0.rdQLenPdf::23                     0                       # What read queue length does an incoming req see
system.mem_ctrls0.rdQLenPdf::24                     0                       # What read queue length does an incoming req see
system.mem_ctrls0.rdQLenPdf::25                     0                       # What read queue length does an incoming req see
system.mem_ctrls0.rdQLenPdf::26                     0                       # What read queue length does an incoming req see
system.mem_ctrls0.rdQLenPdf::27                     0                       # What read queue length does an incoming req see
system.mem_ctrls0.rdQLenPdf::28                     0                       # What read queue length does an incoming req see
system.mem_ctrls0.rdQLenPdf::29                     0                       # What read queue length does an incoming req see
system.mem_ctrls0.rdQLenPdf::30                     0                       # What read queue length does an incoming req see
system.mem_ctrls0.rdQLenPdf::31                     0                       # What read queue length does an incoming req see
system.mem_ctrls0.wrQLenPdf::0                      2                       # What write queue length does an incoming req see
system.mem_ctrls0.wrQLenPdf::1                      2                       # What write queue length does an incoming req see
system.mem_ctrls0.wrQLenPdf::2                      2                       # What write queue length does an incoming req see
system.mem_ctrls0.wrQLenPdf::3                      2                       # What write queue length does an incoming req see
system.mem_ctrls0.wrQLenPdf::4                      2                       # What write queue length does an incoming req see
system.mem_ctrls0.wrQLenPdf::5                      2                       # What write queue length does an incoming req see
system.mem_ctrls0.wrQLenPdf::6                      2                       # What write queue length does an incoming req see
system.mem_ctrls0.wrQLenPdf::7                      2                       # What write queue length does an incoming req see
system.mem_ctrls0.wrQLenPdf::8                      2                       # What write queue length does an incoming req see
system.mem_ctrls0.wrQLenPdf::9                      2                       # What write queue length does an incoming req see
system.mem_ctrls0.wrQLenPdf::10                     2                       # What write queue length does an incoming req see
system.mem_ctrls0.wrQLenPdf::11                     2                       # What write queue length does an incoming req see
system.mem_ctrls0.wrQLenPdf::12                     2                       # What write queue length does an incoming req see
system.mem_ctrls0.wrQLenPdf::13                     2                       # What write queue length does an incoming req see
system.mem_ctrls0.wrQLenPdf::14                     2                       # What write queue length does an incoming req see
system.mem_ctrls0.wrQLenPdf::15                 24749                       # What write queue length does an incoming req see
system.mem_ctrls0.wrQLenPdf::16                 25142                       # What write queue length does an incoming req see
system.mem_ctrls0.wrQLenPdf::17                 28591                       # What write queue length does an incoming req see
system.mem_ctrls0.wrQLenPdf::18                 28845                       # What write queue length does an incoming req see
system.mem_ctrls0.wrQLenPdf::19                 28824                       # What write queue length does an incoming req see
system.mem_ctrls0.wrQLenPdf::20                 28779                       # What write queue length does an incoming req see
system.mem_ctrls0.wrQLenPdf::21                 28809                       # What write queue length does an incoming req see
system.mem_ctrls0.wrQLenPdf::22                 28812                       # What write queue length does an incoming req see
system.mem_ctrls0.wrQLenPdf::23                 28742                       # What write queue length does an incoming req see
system.mem_ctrls0.wrQLenPdf::24                 28744                       # What write queue length does an incoming req see
system.mem_ctrls0.wrQLenPdf::25                 28736                       # What write queue length does an incoming req see
system.mem_ctrls0.wrQLenPdf::26                 28804                       # What write queue length does an incoming req see
system.mem_ctrls0.wrQLenPdf::27                 28791                       # What write queue length does an incoming req see
system.mem_ctrls0.wrQLenPdf::28                 28788                       # What write queue length does an incoming req see
system.mem_ctrls0.wrQLenPdf::29                 28828                       # What write queue length does an incoming req see
system.mem_ctrls0.wrQLenPdf::30                 29089                       # What write queue length does an incoming req see
system.mem_ctrls0.wrQLenPdf::31                 28726                       # What write queue length does an incoming req see
system.mem_ctrls0.wrQLenPdf::32                 28733                       # What write queue length does an incoming req see
system.mem_ctrls0.wrQLenPdf::33                    13                       # What write queue length does an incoming req see
system.mem_ctrls0.wrQLenPdf::34                     0                       # What write queue length does an incoming req see
system.mem_ctrls0.wrQLenPdf::35                     0                       # What write queue length does an incoming req see
system.mem_ctrls0.wrQLenPdf::36                     0                       # What write queue length does an incoming req see
system.mem_ctrls0.wrQLenPdf::37                     0                       # What write queue length does an incoming req see
system.mem_ctrls0.wrQLenPdf::38                     0                       # What write queue length does an incoming req see
system.mem_ctrls0.wrQLenPdf::39                     0                       # What write queue length does an incoming req see
system.mem_ctrls0.wrQLenPdf::40                     0                       # What write queue length does an incoming req see
system.mem_ctrls0.wrQLenPdf::41                     0                       # What write queue length does an incoming req see
system.mem_ctrls0.wrQLenPdf::42                     0                       # What write queue length does an incoming req see
system.mem_ctrls0.wrQLenPdf::43                     0                       # What write queue length does an incoming req see
system.mem_ctrls0.wrQLenPdf::44                     0                       # What write queue length does an incoming req see
system.mem_ctrls0.wrQLenPdf::45                     0                       # What write queue length does an incoming req see
system.mem_ctrls0.wrQLenPdf::46                     0                       # What write queue length does an incoming req see
system.mem_ctrls0.wrQLenPdf::47                     0                       # What write queue length does an incoming req see
system.mem_ctrls0.wrQLenPdf::48                     0                       # What write queue length does an incoming req see
system.mem_ctrls0.wrQLenPdf::49                     0                       # What write queue length does an incoming req see
system.mem_ctrls0.wrQLenPdf::50                     0                       # What write queue length does an incoming req see
system.mem_ctrls0.wrQLenPdf::51                     0                       # What write queue length does an incoming req see
system.mem_ctrls0.wrQLenPdf::52                     0                       # What write queue length does an incoming req see
system.mem_ctrls0.wrQLenPdf::53                     0                       # What write queue length does an incoming req see
system.mem_ctrls0.wrQLenPdf::54                     0                       # What write queue length does an incoming req see
system.mem_ctrls0.wrQLenPdf::55                     0                       # What write queue length does an incoming req see
system.mem_ctrls0.wrQLenPdf::56                     0                       # What write queue length does an incoming req see
system.mem_ctrls0.wrQLenPdf::57                     0                       # What write queue length does an incoming req see
system.mem_ctrls0.wrQLenPdf::58                     0                       # What write queue length does an incoming req see
system.mem_ctrls0.wrQLenPdf::59                     0                       # What write queue length does an incoming req see
system.mem_ctrls0.wrQLenPdf::60                     0                       # What write queue length does an incoming req see
system.mem_ctrls0.wrQLenPdf::61                     0                       # What write queue length does an incoming req see
system.mem_ctrls0.wrQLenPdf::62                     0                       # What write queue length does an incoming req see
system.mem_ctrls0.wrQLenPdf::63                     0                       # What write queue length does an incoming req see
system.mem_ctrls0.bytesPerActivate::samples      1756677                       # Bytes accessed per row activation
system.mem_ctrls0.bytesPerActivate::mean   173.170157                       # Bytes accessed per row activation
system.mem_ctrls0.bytesPerActivate::gmean   120.292529                       # Bytes accessed per row activation
system.mem_ctrls0.bytesPerActivate::stdev   190.915570                       # Bytes accessed per row activation
system.mem_ctrls0.bytesPerActivate::0-127       891399     50.74%     50.74% # Bytes accessed per row activation
system.mem_ctrls0.bytesPerActivate::128-255       471454     26.84%     77.58% # Bytes accessed per row activation
system.mem_ctrls0.bytesPerActivate::256-383       195924     11.15%     88.73% # Bytes accessed per row activation
system.mem_ctrls0.bytesPerActivate::384-511        77683      4.42%     93.16% # Bytes accessed per row activation
system.mem_ctrls0.bytesPerActivate::512-639        37792      2.15%     95.31% # Bytes accessed per row activation
system.mem_ctrls0.bytesPerActivate::640-767        24562      1.40%     96.71% # Bytes accessed per row activation
system.mem_ctrls0.bytesPerActivate::768-895        16088      0.92%     97.62% # Bytes accessed per row activation
system.mem_ctrls0.bytesPerActivate::896-1023        11170      0.64%     98.26% # Bytes accessed per row activation
system.mem_ctrls0.bytesPerActivate::1024-1151        30605      1.74%    100.00% # Bytes accessed per row activation
system.mem_ctrls0.bytesPerActivate::total      1756677                       # Bytes accessed per row activation
system.mem_ctrls0.rdPerTurnAround::samples        28713                       # Reads before turning the bus around for writes
system.mem_ctrls0.rdPerTurnAround::mean    147.754223                       # Reads before turning the bus around for writes
system.mem_ctrls0.rdPerTurnAround::stdev   227.505534                       # Reads before turning the bus around for writes
system.mem_ctrls0.rdPerTurnAround::0-1023        28638     99.74%     99.74% # Reads before turning the bus around for writes
system.mem_ctrls0.rdPerTurnAround::1024-2047           74      0.26%    100.00% # Reads before turning the bus around for writes
system.mem_ctrls0.rdPerTurnAround::28672-29695            1      0.00%    100.00% # Reads before turning the bus around for writes
system.mem_ctrls0.rdPerTurnAround::total        28713                       # Reads before turning the bus around for writes
system.mem_ctrls0.wrPerTurnAround::samples        28713                       # Writes before turning the bus around for reads
system.mem_ctrls0.wrPerTurnAround::mean     17.781388                       # Writes before turning the bus around for reads
system.mem_ctrls0.wrPerTurnAround::gmean    17.766141                       # Writes before turning the bus around for reads
system.mem_ctrls0.wrPerTurnAround::stdev     0.719382                       # Writes before turning the bus around for reads
system.mem_ctrls0.wrPerTurnAround::16            3610     12.57%     12.57% # Writes before turning the bus around for reads
system.mem_ctrls0.wrPerTurnAround::17             332      1.16%     13.73% # Writes before turning the bus around for reads
system.mem_ctrls0.wrPerTurnAround::18           23578     82.12%     95.85% # Writes before turning the bus around for reads
system.mem_ctrls0.wrPerTurnAround::19            1118      3.89%     99.74% # Writes before turning the bus around for reads
system.mem_ctrls0.wrPerTurnAround::20              70      0.24%     99.98% # Writes before turning the bus around for reads
system.mem_ctrls0.wrPerTurnAround::21               4      0.01%    100.00% # Writes before turning the bus around for reads
system.mem_ctrls0.wrPerTurnAround::23               1      0.00%    100.00% # Writes before turning the bus around for reads
system.mem_ctrls0.wrPerTurnAround::total        28713                       # Writes before turning the bus around for reads
system.mem_ctrls0.totQLat                 91027063688                       # Total ticks spent queuing
system.mem_ctrls0.totMemAccLat           170576563688                       # Total ticks spent from burst creation until serviced by the DRAM
system.mem_ctrls0.totBusLat               21213200000                       # Total ticks spent in databus transfers
system.mem_ctrls0.avgQLat                    21455.29                       # Average queueing delay per DRAM burst
system.mem_ctrls0.avgBusLat                   5000.00                       # Average bus latency per DRAM burst
system.mem_ctrls0.avgMemAccLat               40205.29                       # Average memory access latency per DRAM burst
system.mem_ctrls0.avgRdBW                      106.05                       # Average DRAM read bandwidth in MiByte/s
system.mem_ctrls0.avgWrBW                       12.76                       # Average achieved write bandwidth in MiByte/s
system.mem_ctrls0.avgRdBWSys                   106.21                       # Average system read bandwidth in MiByte/s
system.mem_ctrls0.avgWrBWSys                    12.76                       # Average system write bandwidth in MiByte/s
system.mem_ctrls0.peakBW                     12800.00                       # Theoretical peak bandwidth in MiByte/s
system.mem_ctrls0.busUtil                        0.93                       # Data bus utilization in percentage
system.mem_ctrls0.busUtilRead                    0.83                       # Data bus utilization in percentage for reads
system.mem_ctrls0.busUtilWrite                   0.10                       # Data bus utilization in percentage for writes
system.mem_ctrls0.avgRdQLen                      1.06                       # Average read queue length when enqueuing
system.mem_ctrls0.avgWrQLen                     24.41                       # Average write queue length when enqueuing
system.mem_ctrls0.readRowHits                 2609312                       # Number of row buffer hits during reads
system.mem_ctrls0.writeRowHits                 387205                       # Number of row buffer hits during writes
system.mem_ctrls0.readRowHitRate                61.50                       # Row buffer hit rate for reads
system.mem_ctrls0.writeRowHitRate               75.84                       # Row buffer hit rate for writes
system.mem_ctrls0.avgGap                    537949.92                       # Average gap between requests
system.mem_ctrls0.pageHitRate                   63.04                       # Row buffer hit rate, read and write combined
system.mem_ctrls0_0.actEnergy              7138993260                       # Energy for activate commands per rank (pJ)
system.mem_ctrls0_0.preEnergy              3794461110                       # Energy for precharge commands per rank (pJ)
system.mem_ctrls0_0.readEnergy            16538160660                       # Energy for read commands per rank (pJ)
system.mem_ctrls0_0.writeEnergy            1009506240                       # Energy for write commands per rank (pJ)
system.mem_ctrls0_0.refreshEnergy        191995096800.000031                       # Energy for refresh commands per rank (pJ)
system.mem_ctrls0_0.actBackEnergy         77928337740                       # Energy for active background per rank (pJ)
system.mem_ctrls0_0.preBackEnergy          5338987680                       # Energy for precharge background per rank (pJ)
system.mem_ctrls0_0.actPowerDownEnergy   800180860470                       # Energy for active power-down per rank (pJ)
system.mem_ctrls0_0.prePowerDownEnergy   154151083680                       # Energy for precharge power-down per rank (pJ)
system.mem_ctrls0_0.selfRefreshEnergy     59597706705                       # Energy for self refresh per rank (pJ)
system.mem_ctrls0_0.totalEnergy          1317714147225                       # Total energy per rank (pJ)
system.mem_ctrls0_0.averagePower           514.659622                       # Core power per rank (mW)
system.mem_ctrls0_0.totalIdleTime        2375474831595                       # Total Idle time Per DRAM Rank
system.mem_ctrls0_0.memoryStateTime::IDLE   5368210598                       # Time in different power states
system.mem_ctrls0_0.memoryStateTime::REF  81295670000                       # Time in different power states
system.mem_ctrls0_0.memoryStateTime::SREF 219252640377                       # Time in different power states
system.mem_ctrls0_0.memoryStateTime::PRE_PDN 401434065532                       # Time in different power states
system.mem_ctrls0_0.memoryStateTime::ACT  98221258688                       # Time in different power states
system.mem_ctrls0_0.memoryStateTime::ACT_PDN 1754788601768                       # Time in different power states
system.mem_ctrls0_1.actEnergy              5403701940                       # Energy for activate commands per rank (pJ)
system.mem_ctrls0_1.preEnergy              2872128105                       # Energy for precharge commands per rank (pJ)
system.mem_ctrls0_1.readEnergy            13754288940                       # Energy for read commands per rank (pJ)
system.mem_ctrls0_1.writeEnergy            1655601300                       # Energy for write commands per rank (pJ)
system.mem_ctrls0_1.refreshEnergy        179494548480.000031                       # Energy for refresh commands per rank (pJ)
system.mem_ctrls0_1.actBackEnergy         77085336810                       # Energy for active background per rank (pJ)
system.mem_ctrls0_1.preBackEnergy          5721407040                       # Energy for precharge background per rank (pJ)
system.mem_ctrls0_1.actPowerDownEnergy   686334881310                       # Energy for active power-down per rank (pJ)
system.mem_ctrls0_1.prePowerDownEnergy   166397718720                       # Energy for precharge power-down per rank (pJ)
system.mem_ctrls0_1.selfRefreshEnergy    116660286345                       # Energy for self refresh per rank (pJ)
system.mem_ctrls0_1.totalEnergy          1255432074420                       # Total energy per rank (pJ)
system.mem_ctrls0_1.averagePower           490.334113                       # Core power per rank (mW)
system.mem_ctrls0_1.totalIdleTime        2376300244620                       # Total Idle time Per DRAM Rank
system.mem_ctrls0_1.memoryStateTime::IDLE   7099604168                       # Time in different power states
system.mem_ctrls0_1.memoryStateTime::REF  76059252000                       # Time in different power states
system.mem_ctrls0_1.memoryStateTime::SREF 437850337897                       # Time in different power states
system.mem_ctrls0_1.memoryStateTime::PRE_PDN 433327951243                       # Time in different power states
system.mem_ctrls0_1.memoryStateTime::ACT 100901212750                       # Time in different power states
system.mem_ctrls0_1.memoryStateTime::ACT_PDN 1505122088905                       # Time in different power states
system.mem_ctrls1.pwrStateResidencyTicks::UNDEFINED 735512801000949                       # Cumulative time (in ticks) in various power states
system.mem_ctrls1.bytes_read::cpu.inst             64                       # Number of bytes read from this memory
system.mem_ctrls1.bytes_read::cpu.data            192                       # Number of bytes read from this memory
system.mem_ctrls1.bytes_read::switch_cpus.inst        74496                       # Number of bytes read from this memory
system.mem_ctrls1.bytes_read::switch_cpus.data    116668032                       # Number of bytes read from this memory
system.mem_ctrls1.bytes_read::switch_cpus_1.inst       109184                       # Number of bytes read from this memory
system.mem_ctrls1.bytes_read::switch_cpus_1.data    156861632                       # Number of bytes read from this memory
system.mem_ctrls1.bytes_read::total         273713600                       # Number of bytes read from this memory
system.mem_ctrls1.bytes_inst_read::cpu.inst           64                       # Number of instructions bytes read from this memory
system.mem_ctrls1.bytes_inst_read::switch_cpus.inst        74496                       # Number of instructions bytes read from this memory
system.mem_ctrls1.bytes_inst_read::switch_cpus_1.inst       109184                       # Number of instructions bytes read from this memory
system.mem_ctrls1.bytes_inst_read::total       183744                       # Number of instructions bytes read from this memory
system.mem_ctrls1.bytes_written::writebacks     32626368                       # Number of bytes written to this memory
system.mem_ctrls1.bytes_written::total       32626368                       # Number of bytes written to this memory
system.mem_ctrls1.num_reads::cpu.inst               1                       # Number of read requests responded to by this memory
system.mem_ctrls1.num_reads::cpu.data               3                       # Number of read requests responded to by this memory
system.mem_ctrls1.num_reads::switch_cpus.inst         1164                       # Number of read requests responded to by this memory
system.mem_ctrls1.num_reads::switch_cpus.data      1822938                       # Number of read requests responded to by this memory
system.mem_ctrls1.num_reads::switch_cpus_1.inst         1706                       # Number of read requests responded to by this memory
system.mem_ctrls1.num_reads::switch_cpus_1.data      2450963                       # Number of read requests responded to by this memory
system.mem_ctrls1.num_reads::total            4276775                       # Number of read requests responded to by this memory
system.mem_ctrls1.num_writes::writebacks       509787                       # Number of write requests responded to by this memory
system.mem_ctrls1.num_writes::total            509787                       # Number of write requests responded to by this memory
system.mem_ctrls1.bw_read::cpu.inst                25                       # Total read bandwidth from this memory (bytes/s)
system.mem_ctrls1.bw_read::cpu.data                75                       # Total read bandwidth from this memory (bytes/s)
system.mem_ctrls1.bw_read::switch_cpus.inst        29096                       # Total read bandwidth from this memory (bytes/s)
system.mem_ctrls1.bw_read::switch_cpus.data     45567034                       # Total read bandwidth from this memory (bytes/s)
system.mem_ctrls1.bw_read::switch_cpus_1.inst        42644                       # Total read bandwidth from this memory (bytes/s)
system.mem_ctrls1.bw_read::switch_cpus_1.data     61265449                       # Total read bandwidth from this memory (bytes/s)
system.mem_ctrls1.bw_read::total            106904323                       # Total read bandwidth from this memory (bytes/s)
system.mem_ctrls1.bw_inst_read::cpu.inst           25                       # Instruction read bandwidth from this memory (bytes/s)
system.mem_ctrls1.bw_inst_read::switch_cpus.inst        29096                       # Instruction read bandwidth from this memory (bytes/s)
system.mem_ctrls1.bw_inst_read::switch_cpus_1.inst        42644                       # Instruction read bandwidth from this memory (bytes/s)
system.mem_ctrls1.bw_inst_read::total           71765                       # Instruction read bandwidth from this memory (bytes/s)
system.mem_ctrls1.bw_write::writebacks       12742881                       # Write bandwidth from this memory (bytes/s)
system.mem_ctrls1.bw_write::total            12742881                       # Write bandwidth from this memory (bytes/s)
system.mem_ctrls1.bw_total::writebacks       12742881                       # Total bandwidth to/from this memory (bytes/s)
system.mem_ctrls1.bw_total::cpu.inst               25                       # Total bandwidth to/from this memory (bytes/s)
system.mem_ctrls1.bw_total::cpu.data               75                       # Total bandwidth to/from this memory (bytes/s)
system.mem_ctrls1.bw_total::switch_cpus.inst        29096                       # Total bandwidth to/from this memory (bytes/s)
system.mem_ctrls1.bw_total::switch_cpus.data     45567034                       # Total bandwidth to/from this memory (bytes/s)
system.mem_ctrls1.bw_total::switch_cpus_1.inst        42644                       # Total bandwidth to/from this memory (bytes/s)
system.mem_ctrls1.bw_total::switch_cpus_1.data     61265449                       # Total bandwidth to/from this memory (bytes/s)
system.mem_ctrls1.bw_total::total           119647204                       # Total bandwidth to/from this memory (bytes/s)
system.mem_ctrls1.readReqs                    4276775                       # Number of read requests accepted
system.mem_ctrls1.writeReqs                    509787                       # Number of write requests accepted
system.mem_ctrls1.readBursts                  4276775                       # Number of DRAM read bursts, including those serviced by the write queue
system.mem_ctrls1.writeBursts                  509787                       # Number of DRAM write bursts, including those merged in the write queue
system.mem_ctrls1.bytesReadDRAM             273309184                       # Total number of bytes read from DRAM
system.mem_ctrls1.bytesReadWrQ                 404416                       # Total number of bytes read from write queue
system.mem_ctrls1.bytesWritten               32623232                       # Total number of bytes written to DRAM
system.mem_ctrls1.bytesReadSys              273713600                       # Total read bytes from the system interface side
system.mem_ctrls1.bytesWrittenSys            32626368                       # Total written bytes from the system interface side
system.mem_ctrls1.servicedByWrQ                  6319                       # Number of DRAM read bursts serviced by the write queue
system.mem_ctrls1.mergedWrBursts                   25                       # Number of DRAM write bursts merged with an existing one
system.mem_ctrls1.neitherReadNorWriteReqs            0                       # Number of requests that are neither read nor write
system.mem_ctrls1.perBankRdBursts::0           287938                       # Per bank write bursts
system.mem_ctrls1.perBankRdBursts::1           296574                       # Per bank write bursts
system.mem_ctrls1.perBankRdBursts::2           306040                       # Per bank write bursts
system.mem_ctrls1.perBankRdBursts::3           290590                       # Per bank write bursts
system.mem_ctrls1.perBankRdBursts::4           313767                       # Per bank write bursts
system.mem_ctrls1.perBankRdBursts::5           275012                       # Per bank write bursts
system.mem_ctrls1.perBankRdBursts::6           264201                       # Per bank write bursts
system.mem_ctrls1.perBankRdBursts::7           306638                       # Per bank write bursts
system.mem_ctrls1.perBankRdBursts::8           291917                       # Per bank write bursts
system.mem_ctrls1.perBankRdBursts::9           300620                       # Per bank write bursts
system.mem_ctrls1.perBankRdBursts::10          209120                       # Per bank write bursts
system.mem_ctrls1.perBankRdBursts::11          180692                       # Per bank write bursts
system.mem_ctrls1.perBankRdBursts::12          207309                       # Per bank write bursts
system.mem_ctrls1.perBankRdBursts::13          226700                       # Per bank write bursts
system.mem_ctrls1.perBankRdBursts::14          218099                       # Per bank write bursts
system.mem_ctrls1.perBankRdBursts::15          295239                       # Per bank write bursts
system.mem_ctrls1.perBankWrBursts::0            29945                       # Per bank write bursts
system.mem_ctrls1.perBankWrBursts::1            48809                       # Per bank write bursts
system.mem_ctrls1.perBankWrBursts::2            50279                       # Per bank write bursts
system.mem_ctrls1.perBankWrBursts::3            33995                       # Per bank write bursts
system.mem_ctrls1.perBankWrBursts::4            12119                       # Per bank write bursts
system.mem_ctrls1.perBankWrBursts::5             9913                       # Per bank write bursts
system.mem_ctrls1.perBankWrBursts::6             3011                       # Per bank write bursts
system.mem_ctrls1.perBankWrBursts::7             3149                       # Per bank write bursts
system.mem_ctrls1.perBankWrBursts::8            16665                       # Per bank write bursts
system.mem_ctrls1.perBankWrBursts::9            53665                       # Per bank write bursts
system.mem_ctrls1.perBankWrBursts::10           52692                       # Per bank write bursts
system.mem_ctrls1.perBankWrBursts::11           45293                       # Per bank write bursts
system.mem_ctrls1.perBankWrBursts::12           43377                       # Per bank write bursts
system.mem_ctrls1.perBankWrBursts::13           35977                       # Per bank write bursts
system.mem_ctrls1.perBankWrBursts::14           30767                       # Per bank write bursts
system.mem_ctrls1.perBankWrBursts::15           40082                       # Per bank write bursts
system.mem_ctrls1.numRdRetry                        0                       # Number of times read queue was full causing retry
system.mem_ctrls1.numWrRetry                        0                       # Number of times write queue was full causing retry
system.mem_ctrls1.totGap                 2560359948795                       # Total gap between requests
system.mem_ctrls1.readPktSize::0                    0                       # Read request sizes (log2)
system.mem_ctrls1.readPktSize::1                    0                       # Read request sizes (log2)
system.mem_ctrls1.readPktSize::2                    0                       # Read request sizes (log2)
system.mem_ctrls1.readPktSize::3                    0                       # Read request sizes (log2)
system.mem_ctrls1.readPktSize::4                    0                       # Read request sizes (log2)
system.mem_ctrls1.readPktSize::5                    0                       # Read request sizes (log2)
system.mem_ctrls1.readPktSize::6              4276775                       # Read request sizes (log2)
system.mem_ctrls1.writePktSize::0                   0                       # Write request sizes (log2)
system.mem_ctrls1.writePktSize::1                   0                       # Write request sizes (log2)
system.mem_ctrls1.writePktSize::2                   0                       # Write request sizes (log2)
system.mem_ctrls1.writePktSize::3                   0                       # Write request sizes (log2)
system.mem_ctrls1.writePktSize::4                   0                       # Write request sizes (log2)
system.mem_ctrls1.writePktSize::5                   0                       # Write request sizes (log2)
system.mem_ctrls1.writePktSize::6              509787                       # Write request sizes (log2)
system.mem_ctrls1.rdQLenPdf::0                3784569                       # What read queue length does an incoming req see
system.mem_ctrls1.rdQLenPdf::1                 458155                       # What read queue length does an incoming req see
system.mem_ctrls1.rdQLenPdf::2                  26827                       # What read queue length does an incoming req see
system.mem_ctrls1.rdQLenPdf::3                    902                       # What read queue length does an incoming req see
system.mem_ctrls1.rdQLenPdf::4                      3                       # What read queue length does an incoming req see
system.mem_ctrls1.rdQLenPdf::5                      0                       # What read queue length does an incoming req see
system.mem_ctrls1.rdQLenPdf::6                      0                       # What read queue length does an incoming req see
system.mem_ctrls1.rdQLenPdf::7                      0                       # What read queue length does an incoming req see
system.mem_ctrls1.rdQLenPdf::8                      0                       # What read queue length does an incoming req see
system.mem_ctrls1.rdQLenPdf::9                      0                       # What read queue length does an incoming req see
system.mem_ctrls1.rdQLenPdf::10                     0                       # What read queue length does an incoming req see
system.mem_ctrls1.rdQLenPdf::11                     0                       # What read queue length does an incoming req see
system.mem_ctrls1.rdQLenPdf::12                     0                       # What read queue length does an incoming req see
system.mem_ctrls1.rdQLenPdf::13                     0                       # What read queue length does an incoming req see
system.mem_ctrls1.rdQLenPdf::14                     0                       # What read queue length does an incoming req see
system.mem_ctrls1.rdQLenPdf::15                     0                       # What read queue length does an incoming req see
system.mem_ctrls1.rdQLenPdf::16                     0                       # What read queue length does an incoming req see
system.mem_ctrls1.rdQLenPdf::17                     0                       # What read queue length does an incoming req see
system.mem_ctrls1.rdQLenPdf::18                     0                       # What read queue length does an incoming req see
system.mem_ctrls1.rdQLenPdf::19                     0                       # What read queue length does an incoming req see
system.mem_ctrls1.rdQLenPdf::20                     0                       # What read queue length does an incoming req see
system.mem_ctrls1.rdQLenPdf::21                     0                       # What read queue length does an incoming req see
system.mem_ctrls1.rdQLenPdf::22                     0                       # What read queue length does an incoming req see
system.mem_ctrls1.rdQLenPdf::23                     0                       # What read queue length does an incoming req see
system.mem_ctrls1.rdQLenPdf::24                     0                       # What read queue length does an incoming req see
system.mem_ctrls1.rdQLenPdf::25                     0                       # What read queue length does an incoming req see
system.mem_ctrls1.rdQLenPdf::26                     0                       # What read queue length does an incoming req see
system.mem_ctrls1.rdQLenPdf::27                     0                       # What read queue length does an incoming req see
system.mem_ctrls1.rdQLenPdf::28                     0                       # What read queue length does an incoming req see
system.mem_ctrls1.rdQLenPdf::29                     0                       # What read queue length does an incoming req see
system.mem_ctrls1.rdQLenPdf::30                     0                       # What read queue length does an incoming req see
system.mem_ctrls1.rdQLenPdf::31                     0                       # What read queue length does an incoming req see
system.mem_ctrls1.wrQLenPdf::0                      2                       # What write queue length does an incoming req see
system.mem_ctrls1.wrQLenPdf::1                      2                       # What write queue length does an incoming req see
system.mem_ctrls1.wrQLenPdf::2                      2                       # What write queue length does an incoming req see
system.mem_ctrls1.wrQLenPdf::3                      2                       # What write queue length does an incoming req see
system.mem_ctrls1.wrQLenPdf::4                      2                       # What write queue length does an incoming req see
system.mem_ctrls1.wrQLenPdf::5                      2                       # What write queue length does an incoming req see
system.mem_ctrls1.wrQLenPdf::6                      2                       # What write queue length does an incoming req see
system.mem_ctrls1.wrQLenPdf::7                      2                       # What write queue length does an incoming req see
system.mem_ctrls1.wrQLenPdf::8                      2                       # What write queue length does an incoming req see
system.mem_ctrls1.wrQLenPdf::9                      2                       # What write queue length does an incoming req see
system.mem_ctrls1.wrQLenPdf::10                     2                       # What write queue length does an incoming req see
system.mem_ctrls1.wrQLenPdf::11                     2                       # What write queue length does an incoming req see
system.mem_ctrls1.wrQLenPdf::12                     2                       # What write queue length does an incoming req see
system.mem_ctrls1.wrQLenPdf::13                     2                       # What write queue length does an incoming req see
system.mem_ctrls1.wrQLenPdf::14                     2                       # What write queue length does an incoming req see
system.mem_ctrls1.wrQLenPdf::15                 24774                       # What write queue length does an incoming req see
system.mem_ctrls1.wrQLenPdf::16                 25103                       # What write queue length does an incoming req see
system.mem_ctrls1.wrQLenPdf::17                 28495                       # What write queue length does an incoming req see
system.mem_ctrls1.wrQLenPdf::18                 28770                       # What write queue length does an incoming req see
system.mem_ctrls1.wrQLenPdf::19                 28757                       # What write queue length does an incoming req see
system.mem_ctrls1.wrQLenPdf::20                 28722                       # What write queue length does an incoming req see
system.mem_ctrls1.wrQLenPdf::21                 28782                       # What write queue length does an incoming req see
system.mem_ctrls1.wrQLenPdf::22                 28760                       # What write queue length does an incoming req see
system.mem_ctrls1.wrQLenPdf::23                 28704                       # What write queue length does an incoming req see
system.mem_ctrls1.wrQLenPdf::24                 28696                       # What write queue length does an incoming req see
system.mem_ctrls1.wrQLenPdf::25                 28706                       # What write queue length does an incoming req see
system.mem_ctrls1.wrQLenPdf::26                 28770                       # What write queue length does an incoming req see
system.mem_ctrls1.wrQLenPdf::27                 28742                       # What write queue length does an incoming req see
system.mem_ctrls1.wrQLenPdf::28                 28736                       # What write queue length does an incoming req see
system.mem_ctrls1.wrQLenPdf::29                 28809                       # What write queue length does an incoming req see
system.mem_ctrls1.wrQLenPdf::30                 29020                       # What write queue length does an incoming req see
system.mem_ctrls1.wrQLenPdf::31                 28682                       # What write queue length does an incoming req see
system.mem_ctrls1.wrQLenPdf::32                 28684                       # What write queue length does an incoming req see
system.mem_ctrls1.wrQLenPdf::33                    19                       # What write queue length does an incoming req see
system.mem_ctrls1.wrQLenPdf::34                     1                       # What write queue length does an incoming req see
system.mem_ctrls1.wrQLenPdf::35                     0                       # What write queue length does an incoming req see
system.mem_ctrls1.wrQLenPdf::36                     0                       # What write queue length does an incoming req see
system.mem_ctrls1.wrQLenPdf::37                     0                       # What write queue length does an incoming req see
system.mem_ctrls1.wrQLenPdf::38                     0                       # What write queue length does an incoming req see
system.mem_ctrls1.wrQLenPdf::39                     0                       # What write queue length does an incoming req see
system.mem_ctrls1.wrQLenPdf::40                     0                       # What write queue length does an incoming req see
system.mem_ctrls1.wrQLenPdf::41                     0                       # What write queue length does an incoming req see
system.mem_ctrls1.wrQLenPdf::42                     0                       # What write queue length does an incoming req see
system.mem_ctrls1.wrQLenPdf::43                     0                       # What write queue length does an incoming req see
system.mem_ctrls1.wrQLenPdf::44                     0                       # What write queue length does an incoming req see
system.mem_ctrls1.wrQLenPdf::45                     0                       # What write queue length does an incoming req see
system.mem_ctrls1.wrQLenPdf::46                     0                       # What write queue length does an incoming req see
system.mem_ctrls1.wrQLenPdf::47                     0                       # What write queue length does an incoming req see
system.mem_ctrls1.wrQLenPdf::48                     0                       # What write queue length does an incoming req see
system.mem_ctrls1.wrQLenPdf::49                     0                       # What write queue length does an incoming req see
system.mem_ctrls1.wrQLenPdf::50                     0                       # What write queue length does an incoming req see
system.mem_ctrls1.wrQLenPdf::51                     0                       # What write queue length does an incoming req see
system.mem_ctrls1.wrQLenPdf::52                     0                       # What write queue length does an incoming req see
system.mem_ctrls1.wrQLenPdf::53                     0                       # What write queue length does an incoming req see
system.mem_ctrls1.wrQLenPdf::54                     0                       # What write queue length does an incoming req see
system.mem_ctrls1.wrQLenPdf::55                     0                       # What write queue length does an incoming req see
system.mem_ctrls1.wrQLenPdf::56                     0                       # What write queue length does an incoming req see
system.mem_ctrls1.wrQLenPdf::57                     0                       # What write queue length does an incoming req see
system.mem_ctrls1.wrQLenPdf::58                     0                       # What write queue length does an incoming req see
system.mem_ctrls1.wrQLenPdf::59                     0                       # What write queue length does an incoming req see
system.mem_ctrls1.wrQLenPdf::60                     0                       # What write queue length does an incoming req see
system.mem_ctrls1.wrQLenPdf::61                     0                       # What write queue length does an incoming req see
system.mem_ctrls1.wrQLenPdf::62                     0                       # What write queue length does an incoming req see
system.mem_ctrls1.wrQLenPdf::63                     0                       # What write queue length does an incoming req see
system.mem_ctrls1.bytesPerActivate::samples      1753901                       # Bytes accessed per row activation
system.mem_ctrls1.bytesPerActivate::mean   174.429220                       # Bytes accessed per row activation
system.mem_ctrls1.bytesPerActivate::gmean   121.063365                       # Bytes accessed per row activation
system.mem_ctrls1.bytesPerActivate::stdev   191.852324                       # Bytes accessed per row activation
system.mem_ctrls1.bytesPerActivate::0-127       883491     50.37%     50.37% # Bytes accessed per row activation
system.mem_ctrls1.bytesPerActivate::128-255       471731     26.90%     77.27% # Bytes accessed per row activation
system.mem_ctrls1.bytesPerActivate::256-383       199466     11.37%     88.64% # Bytes accessed per row activation
system.mem_ctrls1.bytesPerActivate::384-511        77929      4.44%     93.08% # Bytes accessed per row activation
system.mem_ctrls1.bytesPerActivate::512-639        37194      2.12%     95.21% # Bytes accessed per row activation
system.mem_ctrls1.bytesPerActivate::640-767        25045      1.43%     96.63% # Bytes accessed per row activation
system.mem_ctrls1.bytesPerActivate::768-895        16917      0.96%     97.60% # Bytes accessed per row activation
system.mem_ctrls1.bytesPerActivate::896-1023        11388      0.65%     98.25% # Bytes accessed per row activation
system.mem_ctrls1.bytesPerActivate::1024-1151        30740      1.75%    100.00% # Bytes accessed per row activation
system.mem_ctrls1.bytesPerActivate::total      1753901                       # Bytes accessed per row activation
system.mem_ctrls1.rdPerTurnAround::samples        28668                       # Reads before turning the bus around for writes
system.mem_ctrls1.rdPerTurnAround::mean    148.950746                       # Reads before turning the bus around for writes
system.mem_ctrls1.rdPerTurnAround::stdev   227.232792                       # Reads before turning the bus around for writes
system.mem_ctrls1.rdPerTurnAround::0-1023        28602     99.77%     99.77% # Reads before turning the bus around for writes
system.mem_ctrls1.rdPerTurnAround::1024-2047           65      0.23%    100.00% # Reads before turning the bus around for writes
system.mem_ctrls1.rdPerTurnAround::28672-29695            1      0.00%    100.00% # Reads before turning the bus around for writes
system.mem_ctrls1.rdPerTurnAround::total        28668                       # Reads before turning the bus around for writes
system.mem_ctrls1.wrPerTurnAround::samples        28668                       # Writes before turning the bus around for reads
system.mem_ctrls1.wrPerTurnAround::mean     17.780731                       # Writes before turning the bus around for reads
system.mem_ctrls1.wrPerTurnAround::gmean    17.765678                       # Writes before turning the bus around for reads
system.mem_ctrls1.wrPerTurnAround::stdev     0.714766                       # Writes before turning the bus around for reads
system.mem_ctrls1.wrPerTurnAround::16            3589     12.52%     12.52% # Writes before turning the bus around for reads
system.mem_ctrls1.wrPerTurnAround::17             289      1.01%     13.53% # Writes before turning the bus around for reads
system.mem_ctrls1.wrPerTurnAround::18           23678     82.59%     96.12% # Writes before turning the bus around for reads
system.mem_ctrls1.wrPerTurnAround::19            1057      3.69%     99.81% # Writes before turning the bus around for reads
system.mem_ctrls1.wrPerTurnAround::20              47      0.16%     99.97% # Writes before turning the bus around for reads
system.mem_ctrls1.wrPerTurnAround::21               6      0.02%     99.99% # Writes before turning the bus around for reads
system.mem_ctrls1.wrPerTurnAround::22               1      0.00%    100.00% # Writes before turning the bus around for reads
system.mem_ctrls1.wrPerTurnAround::26               1      0.00%    100.00% # Writes before turning the bus around for reads
system.mem_ctrls1.wrPerTurnAround::total        28668                       # Writes before turning the bus around for reads
system.mem_ctrls1.totQLat                 90878972238                       # Total ticks spent queuing
system.mem_ctrls1.totMemAccLat           170950022238                       # Total ticks spent from burst creation until serviced by the DRAM
system.mem_ctrls1.totBusLat               21352280000                       # Total ticks spent in databus transfers
system.mem_ctrls1.avgQLat                    21280.86                       # Average queueing delay per DRAM burst
system.mem_ctrls1.avgBusLat                   5000.00                       # Average bus latency per DRAM burst
system.mem_ctrls1.avgMemAccLat               40030.86                       # Average memory access latency per DRAM burst
system.mem_ctrls1.avgRdBW                      106.75                       # Average DRAM read bandwidth in MiByte/s
system.mem_ctrls1.avgWrBW                       12.74                       # Average achieved write bandwidth in MiByte/s
system.mem_ctrls1.avgRdBWSys                   106.90                       # Average system read bandwidth in MiByte/s
system.mem_ctrls1.avgWrBWSys                    12.74                       # Average system write bandwidth in MiByte/s
system.mem_ctrls1.peakBW                     12800.00                       # Theoretical peak bandwidth in MiByte/s
system.mem_ctrls1.busUtil                        0.93                       # Data bus utilization in percentage
system.mem_ctrls1.busUtilRead                    0.83                       # Data bus utilization in percentage for reads
system.mem_ctrls1.busUtilWrite                   0.10                       # Data bus utilization in percentage for writes
system.mem_ctrls1.avgRdQLen                      1.06                       # Average read queue length when enqueuing
system.mem_ctrls1.avgWrQLen                     24.43                       # Average write queue length when enqueuing
system.mem_ctrls1.readRowHits                 2638247                       # Number of row buffer hits during reads
system.mem_ctrls1.writeRowHits                 388042                       # Number of row buffer hits during writes
system.mem_ctrls1.readRowHitRate                61.78                       # Row buffer hit rate for reads
system.mem_ctrls1.writeRowHitRate               76.12                       # Row buffer hit rate for writes
system.mem_ctrls1.avgGap                    534905.84                       # Average gap between requests
system.mem_ctrls1.pageHitRate                   63.31                       # Row buffer hit rate, read and write combined
system.mem_ctrls1_0.actEnergy              7189280280                       # Energy for activate commands per rank (pJ)
system.mem_ctrls1_0.preEnergy              3821189295                       # Energy for precharge commands per rank (pJ)
system.mem_ctrls1_0.readEnergy            16713026400                       # Energy for read commands per rank (pJ)
system.mem_ctrls1_0.writeEnergy             998168400                       # Energy for write commands per rank (pJ)
system.mem_ctrls1_0.refreshEnergy        192285206880.000031                       # Energy for refresh commands per rank (pJ)
system.mem_ctrls1_0.actBackEnergy         77816297400                       # Energy for active background per rank (pJ)
system.mem_ctrls1_0.preBackEnergy          5290192320                       # Energy for precharge background per rank (pJ)
system.mem_ctrls1_0.actPowerDownEnergy   806138995230                       # Energy for active power-down per rank (pJ)
system.mem_ctrls1_0.prePowerDownEnergy   152569921920                       # Energy for precharge power-down per rank (pJ)
system.mem_ctrls1_0.selfRefreshEnergy     57165635910                       # Energy for self refresh per rank (pJ)
system.mem_ctrls1_0.totalEnergy          1320026188695                       # Total energy per rank (pJ)
system.mem_ctrls1_0.averagePower           515.562637                       # Core power per rank (mW)
system.mem_ctrls1_0.totalIdleTime        2375848126875                       # Total Idle time Per DRAM Rank
system.mem_ctrls1_0.memoryStateTime::IDLE   5191947388                       # Time in different power states
system.mem_ctrls1_0.memoryStateTime::REF  81414046000                       # Time in different power states
system.mem_ctrls1_0.memoryStateTime::SREF 210682744828                       # Time in different power states
system.mem_ctrls1_0.memoryStateTime::PRE_PDN 397317330963                       # Time in different power states
system.mem_ctrls1_0.memoryStateTime::ACT  97906029772                       # Time in different power states
system.mem_ctrls1_0.memoryStateTime::ACT_PDN 1767848348012                       # Time in different power states
system.mem_ctrls1_1.actEnergy              5333601420                       # Energy for activate commands per rank (pJ)
system.mem_ctrls1_1.preEnergy              2834865000                       # Energy for precharge commands per rank (pJ)
system.mem_ctrls1_1.readEnergy            13778029440                       # Energy for read commands per rank (pJ)
system.mem_ctrls1_1.writeEnergy            1662663960                       # Energy for write commands per rank (pJ)
system.mem_ctrls1_1.refreshEnergy        180040963440.000031                       # Energy for refresh commands per rank (pJ)
system.mem_ctrls1_1.actBackEnergy         76465586640                       # Energy for active background per rank (pJ)
system.mem_ctrls1_1.preBackEnergy          5754633600                       # Energy for precharge background per rank (pJ)
system.mem_ctrls1_1.actPowerDownEnergy   688993487280                       # Energy for active power-down per rank (pJ)
system.mem_ctrls1_1.prePowerDownEnergy   166983428160                       # Energy for precharge power-down per rank (pJ)
system.mem_ctrls1_1.selfRefreshEnergy    115265046090                       # Energy for self refresh per rank (pJ)
system.mem_ctrls1_1.totalEnergy          1257165184290                       # Total energy per rank (pJ)
system.mem_ctrls1_1.averagePower           491.011011                       # Core power per rank (mW)
system.mem_ctrls1_1.totalIdleTime        2377572232649                       # Total Idle time Per DRAM Rank
system.mem_ctrls1_1.memoryStateTime::IDLE   7161346414                       # Time in different power states
system.mem_ctrls1_1.memoryStateTime::REF  76291490000                       # Time in different power states
system.mem_ctrls1_1.memoryStateTime::SREF 431765723010                       # Time in different power states
system.mem_ctrls1_1.memoryStateTime::PRE_PDN 434850806896                       # Time in different power states
system.mem_ctrls1_1.memoryStateTime::ACT  99334236817                       # Time in different power states
system.mem_ctrls1_1.memoryStateTime::ACT_PDN 1510956843826                       # Time in different power states
system.pwrStateResidencyTicks::UNDEFINED 735512801000949                       # Cumulative time (in ticks) in various power states
system.cpu.branchPred.lookups                       4                       # Number of BP lookups
system.cpu.branchPred.condPredicted                 4                       # Number of conditional branches predicted
system.cpu.branchPred.condIncorrect                 4                       # Number of conditional branches incorrect
system.cpu.branchPred.BTBLookups                    0                       # Number of BTB lookups
system.cpu.branchPred.BTBHits                       0                       # Number of BTB hits
system.cpu.branchPred.BTBCorrect                    0                       # Number of correct BTB predictions (this stat may not work properly.
system.cpu.branchPred.BTBHitPct                   nan                       # BTB Hit Percentage
system.cpu.branchPred.usedRAS                       0                       # Number of times the RAS was used to get a target.
system.cpu.branchPred.RASInCorrect                  0                       # Number of incorrect RAS predictions.
system.cpu.branchPred.indirectLookups               0                       # Number of indirect predictor lookups.
system.cpu.branchPred.indirectHits                  0                       # Number of indirect target hits.
system.cpu.branchPred.indirectMisses                0                       # Number of indirect misses.
system.cpu.branchPredindirectMispredicted            0                       # Number of mispredicted indirect branches.
system.cpu_voltage_domain.voltage                   1                       # Voltage in Volts
system.cpu_clk_domain.clock                       333                       # Clock period in ticks
system.cpu.dtb.fetch_hits                           0                       # ITB hits
system.cpu.dtb.fetch_misses                         0                       # ITB misses
system.cpu.dtb.fetch_acv                            0                       # ITB acv
system.cpu.dtb.fetch_accesses                       0                       # ITB accesses
system.cpu.dtb.read_hits                           36                       # DTB read hits
system.cpu.dtb.read_misses                          0                       # DTB read misses
system.cpu.dtb.read_acv                             0                       # DTB read access violations
system.cpu.dtb.read_accesses                       36                       # DTB read accesses
system.cpu.dtb.write_hits                           0                       # DTB write hits
system.cpu.dtb.write_misses                         0                       # DTB write misses
system.cpu.dtb.write_acv                            0                       # DTB write access violations
system.cpu.dtb.write_accesses                       0                       # DTB write accesses
system.cpu.dtb.data_hits                           36                       # DTB hits
system.cpu.dtb.data_misses                          0                       # DTB misses
system.cpu.dtb.data_acv                             0                       # DTB access violations
system.cpu.dtb.data_accesses                       36                       # DTB accesses
system.cpu.itb.fetch_hits                          13                       # ITB hits
system.cpu.itb.fetch_misses                         0                       # ITB misses
system.cpu.itb.fetch_acv                            0                       # ITB acv
system.cpu.itb.fetch_accesses                      13                       # ITB accesses
system.cpu.itb.read_hits                            0                       # DTB read hits
system.cpu.itb.read_misses                          0                       # DTB read misses
system.cpu.itb.read_acv                             0                       # DTB read access violations
system.cpu.itb.read_accesses                        0                       # DTB read accesses
system.cpu.itb.write_hits                           0                       # DTB write hits
system.cpu.itb.write_misses                         0                       # DTB write misses
system.cpu.itb.write_acv                            0                       # DTB write access violations
system.cpu.itb.write_accesses                       0                       # DTB write accesses
system.cpu.itb.data_hits                            0                       # DTB hits
system.cpu.itb.data_misses                          0                       # DTB misses
system.cpu.itb.data_acv                             0                       # DTB access violations
system.cpu.itb.data_accesses                        0                       # DTB accesses
system.cpu.workload.num_syscalls                   44                       # Number of system calls
system.cpu.pwrStateResidencyTicks::ON    2560360446963                       # Cumulative time (in ticks) in various power states
system.cpu.numCycles                              997                       # number of cpu cycles simulated
system.cpu.numWorkItemsStarted                      0                       # number of work items this cpu started
system.cpu.numWorkItemsCompleted                    0                       # number of work items this cpu completed
system.cpu.fetch.icacheStallCycles                 63                       # Number of cycles fetch is stalled on an Icache miss
system.cpu.fetch.Insts                             96                       # Number of instructions fetch has processed
system.cpu.fetch.Branches                           4                       # Number of branches that fetch encountered
system.cpu.fetch.Cycles                            12                       # Number of cycles fetch has run and was not squashing or blocked
system.cpu.fetch.SquashCycles                      11                       # Number of cycles fetch has spent squashing
system.cpu.fetch.PendingDrainCycles                16                       # Number of cycles fetch has spent waiting on pipes to drain
system.cpu.fetch.CacheLines                        13                       # Number of cache lines fetched
system.cpu.fetch.IcacheSquashes                     5                       # Number of outstanding Icache misses that were squashed
system.cpu.fetch.rateDist::samples                 96                       # Number of instructions fetched each cycle (Total)
system.cpu.fetch.rateDist::mean                     1                       # Number of instructions fetched each cycle (Total)
system.cpu.fetch.rateDist::stdev             2.659640                       # Number of instructions fetched each cycle (Total)
system.cpu.fetch.rateDist::underflows               0      0.00%      0.00% # Number of instructions fetched each cycle (Total)
system.cpu.fetch.rateDist::0                       84     87.50%     87.50% # Number of instructions fetched each cycle (Total)
system.cpu.fetch.rateDist::1                        0      0.00%     87.50% # Number of instructions fetched each cycle (Total)
system.cpu.fetch.rateDist::2                        0      0.00%     87.50% # Number of instructions fetched each cycle (Total)
system.cpu.fetch.rateDist::3                        0      0.00%     87.50% # Number of instructions fetched each cycle (Total)
system.cpu.fetch.rateDist::4                        0      0.00%     87.50% # Number of instructions fetched each cycle (Total)
[...]
system.switch_cpus_1.iq.int_inst_queue_wakeup_accesses    569031021                       # Number of integer instruction queue wakeup accesses
system.switch_cpus_1.iq.fp_inst_queue_reads   1050388090                       # Number of floating instruction queue reads
system.switch_cpus_1.iq.fp_inst_queue_writes    563560935                       # Number of floating instruction queue writes
system.switch_cpus_1.iq.fp_inst_queue_wakeup_accesses    505284002                       # Number of floating instruction queue wakeup accesses
system.switch_cpus_1.iq.int_alu_accesses    585531535                       # Number of integer alu accesses
system.switch_cpus_1.iq.fp_alu_accesses     537181067                       # Number of floating point alu accesses
system.switch_cpus_1.iew.lsq.thread0.forwLoads      2778223                       # Number of loads that had data forwarded from stores
system.switch_cpus_1.iew.lsq.thread0.invAddrLoads            0                       # Number of loads ignored due to an invalid address
system.switch_cpus_1.iew.lsq.thread0.squashedLoads     30230046                       # Number of loads squashed
system.switch_cpus_1.iew.lsq.thread0.ignoredResponses        39705                       # Number of memory responses ignored because the instruction is squashed
system.switch_cpus_1.iew.lsq.thread0.memOrderViolation        10046                       # Number of memory ordering violations
system.switch_cpus_1.iew.lsq.thread0.squashedStores      3067207                       # Number of stores squashed
system.switch_cpus_1.iew.lsq.thread0.invAddrSwpfs            0                       # Number of software prefetches ignored due to an invalid address
system.switch_cpus_1.iew.lsq.thread0.blockedLoads            0                       # Number of blocked loads due to partial load-store forwarding
system.switch_cpus_1.iew.lsq.thread0.rescheduledLoads          704                       # Number of loads that were rescheduled
system.switch_cpus_1.iew.lsq.thread0.cacheBlocked      9391781                       # Number of times an access to memory failed due to the cache being blocked
system.switch_cpus_1.iew.iewIdleCycles              0                       # Number of cycles IEW is idle
system.switch_cpus_1.iew.iewSquashCycles      2333923                       # Number of cycles IEW is squashing
system.switch_cpus_1.iew.iewBlockCycles     584142530                       # Number of cycles IEW is blocking
system.switch_cpus_1.iew.iewUnblockCycles    349022331                       # Number of cycles IEW is unblocking
system.switch_cpus_1.iew.iewDispatchedInsts   1129932812                       # Number of instructions dispatched to IQ
system.switch_cpus_1.iew.iewDispSquashedInsts      1545517                       # Number of squashed instructions skipped by dispatch
system.switch_cpus_1.iew.iewDispLoadInsts    246234056                       # Number of dispatched load instructions
system.switch_cpus_1.iew.iewDispStoreInsts     20062980                       # Number of dispatched store instructions
system.switch_cpus_1.iew.iewDispNonSpecInsts        25256                       # Number of dispatched non-speculative instructions
system.switch_cpus_1.iew.iewIQFullEvents      4033865                       # Number of times the IQ has become full, causing a stall
system.switch_cpus_1.iew.iewLSQFullEvents    342029880                       # Number of times the LSQ has become full, causing a stall
system.switch_cpus_1.iew.memOrderViolationEvents        10046                       # Number of memory order violations
system.switch_cpus_1.iew.predictedTakenIncorrect      1843402                       # Number of branches that were predicted taken incorrectly
system.switch_cpus_1.iew.predictedNotTakenIncorrect       471821                       # Number of branches that were predicted not taken incorrectly
system.switch_cpus_1.iew.branchMispredicts      2315223                       # Number of branch mispredicts detected at execute
system.switch_cpus_1.iew.iewExecutedInsts   1089765135                       # Number of executed instructions
system.switch_cpus_1.iew.iewExecLoadInsts    247794320                       # Number of load instructions executed
system.switch_cpus_1.iew.iewExecSquashedInsts      4569236                       # Number of squashed instructions skipped in execute
system.switch_cpus_1.iew.exec_swp                   0                       # number of swp insts executed
system.switch_cpus_1.iew.exec_nop            10489933                       # number of nop insts executed
system.switch_cpus_1.iew.exec_refs          266693826                       # number of memory reference insts executed
system.switch_cpus_1.iew.exec_branches       88793636                       # Number of branches executed
system.switch_cpus_1.iew.exec_stores         18899506                       # Number of stores executed
system.switch_cpus_1.iew.exec_rate           0.522115                       # Inst execution rate
system.switch_cpus_1.iew.wb_sent           1077719621                       # cumulative count of insts sent to commit
system.switch_cpus_1.iew.wb_count          1074315023                       # cumulative count of insts written-back
system.switch_cpus_1.iew.wb_producers       791701899                       # num instructions producing a value
system.switch_cpus_1.iew.wb_consumers      1010911591                       # num instructions consuming a value
system.switch_cpus_1.iew.wb_rate             0.514712                       # insts written-back per cycle
system.switch_cpus_1.iew.wb_fanout           0.783156                       # average fanout of values written-back
system.switch_cpus_1.commit.commitSquashedInsts    115318539                       # The number of squashed insts skipped by commit
system.switch_cpus_1.commit.commitNonSpecStalls        34248                       # The number of times commit has been forced to stall to communicate backwards
system.switch_cpus_1.commit.branchMispredicts      1998460                       # The number of times a branch was mispredicted
system.switch_cpus_1.commit.committed_per_cycle::samples   2069646540                       # Number of insts commited each cycle
system.switch_cpus_1.commit.committed_per_cycle::mean     0.487255                       # Number of insts commited each cycle
system.switch_cpus_1.commit.committed_per_cycle::stdev     1.771727                       # Number of insts commited each cycle
system.switch_cpus_1.commit.committed_per_cycle::underflows            0      0.00%      0.00% # Number of insts commited each cycle
system.switch_cpus_1.commit.committed_per_cycle::0   1882788435     90.97%     90.97% # Number of insts commited each cycle
system.switch_cpus_1.commit.committed_per_cycle::1     34763156      1.68%     92.65% # Number of insts commited each cycle
system.switch_cpus_1.commit.committed_per_cycle::2     18227077      0.88%     93.53% # Number of insts commited each cycle
system.switch_cpus_1.commit.committed_per_cycle::3      6958180      0.34%     93.87% # Number of insts commited each cycle
system.switch_cpus_1.commit.committed_per_cycle::4      8765400      0.42%     94.29% # Number of insts commited each cycle
system.switch_cpus_1.commit.committed_per_cycle::5      5819209      0.28%     94.57% # Number of insts commited each cycle
system.switch_cpus_1.commit.committed_per_cycle::6     19633050      0.95%     95.52% # Number of insts commited each cycle
system.switch_cpus_1.commit.committed_per_cycle::7      7138189      0.34%     95.87% # Number of insts commited each cycle
system.switch_cpus_1.commit.committed_per_cycle::8     85553844      4.13%    100.00% # Number of insts commited each cycle
system.switch_cpus_1.commit.committed_per_cycle::overflows            0      0.00%    100.00% # Number of insts commited each cycle
system.switch_cpus_1.commit.committed_per_cycle::min_value            0                       # Number of insts commited each cycle
system.switch_cpus_1.commit.committed_per_cycle::max_value            8                       # Number of insts commited each cycle
system.switch_cpus_1.commit.committed_per_cycle::total   2069646540                       # Number of insts commited each cycle
system.switch_cpus_1.commit.committedInsts   1008445870                       # Number of instructions committed
system.switch_cpus_1.commit.committedOps   1008445870                       # Number of ops (including micro ops) committed
system.switch_cpus_1.commit.swp_count               0                       # Number of s/w prefetches committed
system.switch_cpus_1.commit.refs            232999763                       # Number of memory references committed
system.switch_cpus_1.commit.loads           216003990                       # Number of loads committed
system.switch_cpus_1.commit.membars             17124                       # Number of memory barriers committed
system.switch_cpus_1.commit.branches         79869092                       # Number of branches committed
system.switch_cpus_1.commit.fp_insts        490452547                       # Number of committed floating point instructions.
system.switch_cpus_1.commit.int_insts       680418725                       # Number of committed integer instructions.
system.switch_cpus_1.commit.function_calls      1324298                       # Number of function calls committed.
system.switch_cpus_1.commit.op_class_0::No_OpClass      8447346      0.84%      0.84% # Class of committed instruction
system.switch_cpus_1.commit.op_class_0::IntAlu    447808123     44.41%     45.24% # Class of committed instruction
system.switch_cpus_1.commit.op_class_0::IntMult         5005      0.00%     45.24% # Class of committed instruction
system.switch_cpus_1.commit.op_class_0::IntDiv            0      0.00%     45.24% # Class of committed instruction
system.switch_cpus_1.commit.op_class_0::FloatAdd    190671520     18.91%     64.15% # Class of committed instruction
system.switch_cpus_1.commit.op_class_0::FloatCmp      3314797      0.33%     64.48% # Class of committed instruction
system.switch_cpus_1.commit.op_class_0::FloatCvt      1090083      0.11%     64.59% # Class of committed instruction
system.switch_cpus_1.commit.op_class_0::FloatMult    123960203     12.29%     76.88% # Class of committed instruction
system.switch_cpus_1.commit.op_class_0::FloatMultAcc            0      0.00%     76.88% # Class of committed instruction
system.switch_cpus_1.commit.op_class_0::FloatDiv       131906      0.01%     76.89% # Class of committed instruction
system.switch_cpus_1.commit.op_class_0::FloatMisc            0      0.00%     76.89% # Class of committed instruction
system.switch_cpus_1.commit.op_class_0::FloatSqrt            0      0.00%     76.89% # Class of committed instruction
system.switch_cpus_1.commit.op_class_0::SimdAdd            0      0.00%     76.89% # Class of committed instruction
system.switch_cpus_1.commit.op_class_0::SimdAddAcc            0      0.00%     76.89% # Class of committed instruction
system.switch_cpus_1.commit.op_class_0::SimdAlu            0      0.00%     76.89% # Class of committed instruction
system.switch_cpus_1.commit.op_class_0::SimdCmp            0      0.00%     76.89% # Class of committed instruction
system.switch_cpus_1.commit.op_class_0::SimdCvt            0      0.00%     76.89% # Class of committed instruction
system.switch_cpus_1.commit.op_class_0::SimdMisc            0      0.00%     76.89% # Class of committed instruction
system.switch_cpus_1.commit.op_class_0::SimdMult            0      0.00%     76.89% # Class of committed instruction
system.switch_cpus_1.commit.op_class_0::SimdMultAcc            0      0.00%     76.89% # Class of committed instruction
system.switch_cpus_1.commit.op_class_0::SimdShift            0      0.00%     76.89% # Class of committed instruction
system.switch_cpus_1.commit.op_class_0::SimdShiftAcc            0      0.00%     76.89% # Class of committed instruction
system.switch_cpus_1.commit.op_class_0::SimdSqrt            0      0.00%     76.89% # Class of committed instruction
system.switch_cpus_1.commit.op_class_0::SimdFloatAdd            0      0.00%     76.89% # Class of committed instruction
system.switch_cpus_1.commit.op_class_0::SimdFloatAlu            0      0.00%     76.89% # Class of committed instruction
system.switch_cpus_1.commit.op_class_0::SimdFloatCmp            0      0.00%     76.89% # Class of committed instruction
system.switch_cpus_1.commit.op_class_0::SimdFloatCvt            0      0.00%     76.89% # Class of committed instruction
system.switch_cpus_1.commit.op_class_0::SimdFloatDiv            0      0.00%     76.89% # Class of committed instruction
system.switch_cpus_1.commit.op_class_0::SimdFloatMisc            0      0.00%     76.89% # Class of committed instruction
system.switch_cpus_1.commit.op_class_0::SimdFloatMult            0      0.00%     76.89% # Class of committed instruction
system.switch_cpus_1.commit.op_class_0::SimdFloatMultAcc            0      0.00%     76.89% # Class of committed instruction
system.switch_cpus_1.commit.op_class_0::SimdFloatSqrt            0      0.00%     76.89% # Class of committed instruction
system.switch_cpus_1.commit.op_class_0::MemRead     48996009      4.86%     81.75% # Class of committed instruction
system.switch_cpus_1.commit.op_class_0::MemWrite     12736840      1.26%     83.02% # Class of committed instruction
system.switch_cpus_1.commit.op_class_0::FloatMemRead    167025105     16.56%     99.58% # Class of committed instruction
system.switch_cpus_1.commit.op_class_0::FloatMemWrite      4258933      0.42%    100.00% # Class of committed instruction
system.switch_cpus_1.commit.op_class_0::IprAccess            0      0.00%    100.00% # Class of committed instruction
system.switch_cpus_1.commit.op_class_0::InstPrefetch            0      0.00%    100.00% # Class of committed instruction
system.switch_cpus_1.commit.op_class_0::total   1008445870                       # Class of committed instruction
system.switch_cpus_1.commit.bw_lim_events     85553844                       # number cycles where commit BW limit reached
system.switch_cpus_1.rob.rob_reads         3103603661                       # The number of ROB reads
system.switch_cpus_1.rob.rob_writes        2263203888                       # The number of ROB writes
system.switch_cpus_1.timesIdled                 10572                       # Number of times that the entire CPU went into an idle state and unscheduled itself
system.switch_cpus_1.idleCycles               1901498                       # Total number of cycles that the CPU has spent unscheduled due to idling
system.switch_cpus_1.committedInsts        1000000002                       # Number of Instructions Simulated
system.switch_cpus_1.committedOps          1000000002                       # Number of Ops (including micro ops) Simulated
system.switch_cpus_1.cpi                     2.087214                       # CPI: Cycles Per Instruction
system.switch_cpus_1.cpi_total               2.087214                       # CPI: Total CPI of All Threads
system.switch_cpus_1.ipc                     0.479107                       # IPC: Instructions Per Cycle
system.switch_cpus_1.ipc_total               0.479107                       # IPC: Total IPC of All Threads
system.switch_cpus_1.int_regfile_reads     1074651229                       # number of integer regfile reads
system.switch_cpus_1.int_regfile_writes     468779855                       # number of integer regfile writes
system.switch_cpus_1.fp_regfile_reads       653592177                       # number of floating regfile reads
system.switch_cpus_1.fp_regfile_writes      499989414                       # number of floating regfile writes
system.switch_cpus_1.misc_regfile_reads       2032637                       # number of misc regfile reads
system.switch_cpus_1.misc_regfile_writes        34987                       # number of misc regfile writes
system.tol3bus.snoop_filter.tot_requests     43917625                       # Total number of requests made to the snoop filter.
system.tol3bus.snoop_filter.hit_single_requests     21957735                       # Number of requests hitting in the snoop filter with a single holder of the requested data.
system.tol3bus.snoop_filter.hit_multi_requests            0                       # Number of requests hitting in the snoop filter with multiple (>1) holders of the requested data.
system.tol3bus.snoop_filter.tot_snoops        1150744                       # Total number of snoops made to the snoop filter.
system.tol3bus.snoop_filter.hit_single_snoops      1150744                       # Number of snoops hitting in the snoop filter with a single holder of the requested data.
system.tol3bus.snoop_filter.hit_multi_snoops            0                       # Number of snoops hitting in the snoop filter with multiple (>1) holders of the requested data.
system.tol3bus.pwrStateResidencyTicks::UNDEFINED 735512801000949                       # Cumulative time (in ticks) in various power states
system.tol3bus.trans_dist::ReadResp          20513137                       # Transaction distribution
system.tol3bus.trans_dist::WritebackDirty      3491518                       # Transaction distribution
system.tol3bus.trans_dist::CleanEvict        27019712                       # Transaction distribution
system.tol3bus.trans_dist::UpgradeReq             117                       # Transaction distribution
system.tol3bus.trans_dist::UpgradeResp            117                       # Transaction distribution
system.tol3bus.trans_dist::ReadExReq          1446753                       # Transaction distribution
system.tol3bus.trans_dist::ReadExResp         1446753                       # Transaction distribution
system.tol3bus.trans_dist::ReadSharedReq     20513137                       # Transaction distribution
system.tol3bus.pkt_count_system.cpu.l2.mem_side::system.l3.cpu_side     65877632                       # Packet count per connected master and slave (bytes)
system.tol3bus.pkt_size_system.cpu.l2.mem_side::system.l3.cpu_side   1563585920                       # Cumulative packet size per connected master and slave (bytes)
system.tol3bus.snoops                         8553612                       # Total snoops (count)
system.tol3bus.snoopTraffic                  65304192                       # Total snoop traffic (bytes)
system.tol3bus.snoop_fanout::samples         30513619                       # Request fanout histogram
system.tol3bus.snoop_fanout::mean            0.037712                       # Request fanout histogram
system.tol3bus.snoop_fanout::stdev           0.190500                       # Request fanout histogram
system.tol3bus.snoop_fanout::underflows             0      0.00%      0.00% # Request fanout histogram
system.tol3bus.snoop_fanout::0               29362875     96.23%     96.23% # Request fanout histogram
system.tol3bus.snoop_fanout::1                1150744      3.77%    100.00% # Request fanout histogram
system.tol3bus.snoop_fanout::overflows              0      0.00%    100.00% # Request fanout histogram
system.tol3bus.snoop_fanout::min_value              0                       # Request fanout histogram
system.tol3bus.snoop_fanout::max_value              1                       # Request fanout histogram
system.tol3bus.snoop_fanout::total           30513619                       # Request fanout histogram
system.tol3bus.reqLayer0.occupancy        15447458745                       # Layer occupancy (ticks)
system.tol3bus.reqLayer0.utilization              0.6                       # Layer utilization (%)
system.tol3bus.respLayer0.occupancy       14625325701                       # Layer occupancy (ticks)
system.tol3bus.respLayer0.utilization             0.6                       # Layer utilization (%)

---------- End Simulation Statistics   ----------
