
---------- Begin Simulation Statistics ----------
sim_seconds                                  3.927598                       # Number of seconds simulated
sim_ticks                                3927598031439                       # Number of ticks simulated
final_tick                               73957570612785                       # Number of ticks from beginning of simulation (restored from checkpoints and never reset)
sim_freq                                 1000000000000                       # Frequency of simulated ticks
host_inst_rate                                 214384                       # Simulator instruction rate (inst/s)
host_op_rate                                   214384                       # Simulator op (including micro ops) rate (op/s)
host_tick_rate                              701677382                       # Simulator tick rate (ticks/s)
host_mem_usage                                2504216                       # Number of bytes of host memory used
host_seconds                                  5597.44                       # Real time elapsed on the host
sim_insts                                  1200000011                       # Number of instructions simulated
sim_ops                                    1200000011                       # Number of ops (including micro ops) simulated
system.voltage_domain.voltage                       1                       # Voltage in Volts
system.clk_domain.clock                          1000                       # Clock period in ticks
system.mem_ctrls0.pwrStateResidencyTicks::UNDEFINED 73957570612785                       # Cumulative time (in ticks) in various power states
system.mem_ctrls0.bytes_read::cpu.inst             64                       # Number of bytes read from this memory
system.mem_ctrls0.bytes_read::cpu.data            128                       # Number of bytes read from this memory
system.mem_ctrls0.bytes_read::switch_cpus.inst       153792                       # Number of bytes read from this memory
system.mem_ctrls0.bytes_read::switch_cpus.data    455452992                       # Number of bytes read from this memory
system.mem_ctrls0.bytes_read::switch_cpus_1.inst        45504                       # Number of bytes read from this memory
system.mem_ctrls0.bytes_read::switch_cpus_1.data     95579648                       # Number of bytes read from this memory
system.mem_ctrls0.bytes_read::total         551232128                       # Number of bytes read from this memory
system.mem_ctrls0.bytes_inst_read::cpu.inst           64                       # Number of instructions bytes read from this memory
system.mem_ctrls0.bytes_inst_read::switch_cpus.inst       153792                       # Number of instructions bytes read from this memory
system.mem_ctrls0.bytes_inst_read::switch_cpus_1.inst        45504                       # Number of instructions bytes read from this memory
system.mem_ctrls0.bytes_inst_read::total       199360                       # Number of instructions bytes read from this memory
system.mem_ctrls0.bytes_written::writebacks    165544384                       # Number of bytes written to this memory
system.mem_ctrls0.bytes_written::total      165544384                       # Number of bytes written to this memory
system.mem_ctrls0.num_reads::cpu.inst               1                       # Number of read requests responded to by this memory
system.mem_ctrls0.num_reads::cpu.data               2                       # Number of read requests responded to by this memory
system.mem_ctrls0.num_reads::switch_cpus.inst         2403                       # Number of read requests responded to by this memory
system.mem_ctrls0.num_reads::switch_cpus.data      7116453                       # Number of read requests responded to by this memory
system.mem_ctrls0.num_reads::switch_cpus_1.inst          711                       # Number of read requests responded to by this memory
system.mem_ctrls0.num_reads::switch_cpus_1.data      1493432                       # Number of read requests responded to by this memory
system.mem_ctrls0.num_reads::total            8613002                       # Number of read requests responded to by this memory
system.mem_ctrls0.num_writes::writebacks      2586631                       # Number of write requests responded to by this memory
system.mem_ctrls0.num_writes::total           2586631                       # Number of write requests responded to by this memory
system.mem_ctrls0.bw_read::cpu.inst                16                       # Total read bandwidth from this memory (bytes/s)
system.mem_ctrls0.bw_read::cpu.data                33                       # Total read bandwidth from this memory (bytes/s)
system.mem_ctrls0.bw_read::switch_cpus.inst        39157                       # Total read bandwidth from this memory (bytes/s)
system.mem_ctrls0.bw_read::switch_cpus.data    115962221                       # Total read bandwidth from this memory (bytes/s)
system.mem_ctrls0.bw_read::switch_cpus_1.inst        11586                       # Total read bandwidth from this memory (bytes/s)
system.mem_ctrls0.bw_read::switch_cpus_1.data     24335395                       # Total read bandwidth from this memory (bytes/s)
system.mem_ctrls0.bw_read::total            140348407                       # Total read bandwidth from this memory (bytes/s)
system.mem_ctrls0.bw_inst_read::cpu.inst           16                       # Instruction read bandwidth from this memory (bytes/s)
system.mem_ctrls0.bw_inst_read::switch_cpus.inst        39157                       # Instruction read bandwidth from this memory (bytes/s)
system.mem_ctrls0.bw_inst_read::switch_cpus_1.inst        11586                       # Instruction read bandwidth from this memory (bytes/s)
system.mem_ctrls0.bw_inst_read::total           50759                       # Instruction read bandwidth from this memory (bytes/s)
system.mem_ctrls0.bw_write::writebacks       42149014                       # Write bandwidth from this memory (bytes/s)
system.mem_ctrls0.bw_write::total            42149014                       # Write bandwidth from this memory (bytes/s)
system.mem_ctrls0.bw_total::writebacks       42149014                       # Total bandwidth to/from this memory (bytes/s)
system.mem_ctrls0.bw_total::cpu.inst               16                       # Total bandwidth to/from this memory (bytes/s)
system.mem_ctrls0.bw_total::cpu.data               33                       # Total bandwidth to/from this memory (bytes/s)
system.mem_ctrls0.bw_total::switch_cpus.inst        39157                       # Total bandwidth to/from this memory (bytes/s)
system.mem_ctrls0.bw_total::switch_cpus.data    115962221                       # Total bandwidth to/from this memory (bytes/s)
system.mem_ctrls0.bw_total::switch_cpus_1.inst        11586                       # Total bandwidth to/from this memory (bytes/s)
system.mem_ctrls0.bw_total::switch_cpus_1.data     24335395                       # Total bandwidth to/from this memory (bytes/s)
system.mem_ctrls0.bw_total::total           182497421                       # Total bandwidth to/from this memory (bytes/s)
system.mem_ctrls0.readReqs                    8613002                       # Number of read requests accepted
system.mem_ctrls0.writeReqs                   2586631                       # Number of write requests accepted
system.mem_ctrls0.readBursts                  8613002                       # Number of DRAM read bursts, including those serviced by the write queue
system.mem_ctrls0.writeBursts                 2586631                       # Number of DRAM write bursts, including those merged in the write queue
system.mem_ctrls0.bytesReadDRAM             550957056                       # Total number of bytes read from DRAM
system.mem_ctrls0.bytesReadWrQ                 275072                       # Total number of bytes read from write queue
system.mem_ctrls0.bytesWritten              165543360                       # Total number of bytes written to DRAM
system.mem_ctrls0.bytesReadSys              551232128                       # Total read bytes from the system interface side
system.mem_ctrls0.bytesWrittenSys           165544384                       # Total written bytes from the system interface side
system.mem_ctrls0.servicedByWrQ                  4298                       # Number of DRAM read bursts serviced by the write queue
system.mem_ctrls0.mergedWrBursts                    0                       # Number of DRAM write bursts merged with an existing one
system.mem_ctrls0.neitherReadNorWriteReqs            0                       # Number of requests that are neither read nor write
system.mem_ctrls0.perBankRdBursts::0           573946                       # Per bank write bursts
system.mem_ctrls0.perBankRdBursts::1           546732                       # Per bank write bursts
system.mem_ctrls0.perBankRdBursts::2           540386                       # Per bank write bursts
system.mem_ctrls0.perBankRdBursts::3           545425                       # Per bank write bursts
system.mem_ctrls0.perBankRdBursts::4           537273                       # Per bank write bursts
system.mem_ctrls0.perBankRdBursts::5           546834                       # Per bank write bursts
system.mem_ctrls0.perBankRdBursts::6           522334                       # Per bank write bursts
system.mem_ctrls0.perBankRdBursts::7           529866                       # Per bank write bursts
system.mem_ctrls0.perBankRdBursts::8           534848                       # Per bank write bursts
system.mem_ctrls0.perBankRdBursts::9           536719                       # Per bank write bursts
system.mem_ctrls0.perBankRdBursts::10          527908                       # Per bank write bursts
system.mem_ctrls0.perBankRdBursts::11          535557                       # Per bank write bursts
system.mem_ctrls0.perBankRdBursts::12          527690                       # Per bank write bursts
system.mem_ctrls0.perBankRdBursts::13          524817                       # Per bank write bursts
system.mem_ctrls0.perBankRdBursts::14          534663                       # Per bank write bursts
system.mem_ctrls0.perBankRdBursts::15          543706                       # Per bank write bursts
system.mem_ctrls0.perBankWrBursts::0           175088                       # Per bank write bursts
system.mem_ctrls0.perBankWrBursts::1           157708                       # Per bank write bursts
system.mem_ctrls0.perBankWrBursts::2           164788                       # Per bank write bursts
system.mem_ctrls0.perBankWrBursts::3           168834                       # Per bank write bursts
system.mem_ctrls0.perBankWrBursts::4           161180                       # Per bank write bursts
system.mem_ctrls0.perBankWrBursts::5           162300                       # Per bank write bursts
system.mem_ctrls0.perBankWrBursts::6           153516                       # Per bank write bursts
system.mem_ctrls0.perBankWrBursts::7           155428                       # Per bank write bursts
system.mem_ctrls0.perBankWrBursts::8           159733                       # Per bank write bursts
system.mem_ctrls0.perBankWrBursts::9           158453                       # Per bank write bursts
system.mem_ctrls0.perBankWrBursts::10          155510                       # Per bank write bursts
system.mem_ctrls0.perBankWrBursts::11          155670                       # Per bank write bursts
system.mem_ctrls0.perBankWrBursts::12          154905                       # Per bank write bursts
system.mem_ctrls0.perBankWrBursts::13          159999                       # Per bank write bursts
system.mem_ctrls0.perBankWrBursts::14          169756                       # Per bank write bursts
system.mem_ctrls0.perBankWrBursts::15          173747                       # Per bank write bursts
system.mem_ctrls0.numRdRetry                        0                       # Number of times read queue was full causing retry
system.mem_ctrls0.numWrRetry                        0                       # Number of times write queue was full causing retry
system.mem_ctrls0.totGap                 3927597031773                       # Total gap between requests
system.mem_ctrls0.readPktSize::0                    0                       # Read request sizes (log2)
system.mem_ctrls0.readPktSize::1                    0                       # Read request sizes (log2)
system.mem_ctrls0.readPktSize::2                    0                       # Read request sizes (log2)
system.mem_ctrls0.readPktSize::3                    0                       # Read request sizes (log2)
system.mem_ctrls0.readPktSize::4                    0                       # Read request sizes (log2)
system.mem_ctrls0.readPktSize::5                    0                       # Read request sizes (log2)
system.mem_ctrls0.readPktSize::6              8613002                       # Read request sizes (log2)
system.mem_ctrls0.writePktSize::0                   0                       # Write request sizes (log2)
system.mem_ctrls0.writePktSize::1                   0                       # Write request sizes (log2)
system.mem_ctrls0.writePktSize::2                   0                       # Write request sizes (log2)
system.mem_ctrls0.writePktSize::3                   0                       # Write request sizes (log2)
system.mem_ctrls0.writePktSize::4                   0                       # Write request sizes (log2)
system.mem_ctrls0.writePktSize::5                   0                       # Write request sizes (log2)
system.mem_ctrls0.writePktSize::6             2586631                       # Write request sizes (log2)
system.mem_ctrls0.rdQLenPdf::0                8133474                       # What read queue length does an incoming req see
system.mem_ctrls0.rdQLenPdf::1                 406586                       # What read queue length does an incoming req see
system.mem_ctrls0.rdQLenPdf::2                  63821                       # What read queue length does an incoming req see
system.mem_ctrls0.rdQLenPdf::3                   4823                       # What read queue length does an incoming req see
system.mem_ctrls0.rdQLenPdf::4                      0                       # What read queue length does an incoming req see
system.mem_ctrls0.rdQLenPdf::5                      0                       # What read queue length does an incoming req see
system.mem_ctrls0.rdQLenPdf::6                      0                       # What read queue length does an incoming req see
system.mem_ctrls0.rdQLenPdf::7                      0                       # What read queue length does an incoming req see
system.mem_ctrls0.rdQLenPdf::8                      0                       # What read queue length does an incoming req see
system.mem_ctrls0.rdQLenPdf::9                      0                       # What read queue length does an incoming req see
system.mem_ctrls0.rdQLenPdf::10                     0                       # What read queue length does an incoming req see
system.mem_ctrls0.rdQLenPdf::11                     0                       # What read queue length does an incoming req see
system.mem_ctrls0.rdQLenPdf::12                     0                       # What read queue length does an incoming req see
system.mem_ctrls0.rdQLenPdf::13                     0                       # What read queue length does an incoming req see
system.mem_ctrls0.rdQLenPdf::14                     0                       # What read queue length does an incoming req see
system.mem_ctrls0.rdQLenPdf::15                     0                       # What read queue length does an incoming req see
system.mem_ctrls0.rdQLenPdf::16                     0                       # What read queue length does an incoming req see
system.mem_ctrls0.rdQLenPdf::17                     0                       # What read queue length does an incoming req see
system.mem_ctrls0.rdQLenPdf::18                     0                       # What read queue length does an incoming req see
system.mem_ctrls0.rdQLenPdf::19                     0                       # What read queue length does an incoming req see
system.mem_ctrls0.rdQLenPdf::20                     0                       # What read queue length does an incoming req see
system.mem_ctrls0.rdQLenPdf::21                     0                       # What read queue length does an incoming req see
system.mem_ctrls0.rdQLenPdf::22                     0                       # What read queue length does an incoming req see
system.mem_ctrls0.rdQLenPdf::23                     0                       # What read queue length does an incoming req see
system.mem_ctrls0.rdQLenPdf::24                     0                       # What read queue length does an incoming req see
system.mem_ctrls0.rdQLenPdf::25                     0                       # What read queue length does an incoming req see
system.mem_ctrls0.rdQLenPdf::26                     0                       # What read queue length does an incoming req see
system.mem_ctrls0.rdQLenPdf::27                     0                       # What read queue length does an incoming req see
system.mem_ctrls0.rdQLenPdf::28                     0                       # What read queue length does an incoming req see
system.mem_ctrls0.rdQLenPdf::29                     0                       # What read queue length does an incoming req see
system.mem_ctrls0.rdQLenPdf::30                     0                       # What read queue length does an incoming req see
system.mem_ctrls0.rdQLenPdf::31                     0                       # What read queue length does an incoming req see
system.mem_ctrls0.wrQLenPdf::0                      2                       # What write queue length does an incoming req see
system.mem_ctrls0.wrQLenPdf::1                      2                       # What write queue length does an incoming req see
system.mem_ctrls0.wrQLenPdf::2                      2                       # What write queue length does an incoming req see
system.mem_ctrls0.wrQLenPdf::3                      2                       # What write queue length does an incoming req see
system.mem_ctrls0.wrQLenPdf::4                      2                       # What write queue length does an incoming req see
system.mem_ctrls0.wrQLenPdf::5                      2                       # What write queue length does an incoming req see
system.mem_ctrls0.wrQLenPdf::6                      2                       # What write queue length does an incoming req see
system.mem_ctrls0.wrQLenPdf::7                      2                       # What write queue length does an incoming req see
system.mem_ctrls0.wrQLenPdf::8                      2                       # What write queue length does an incoming req see
system.mem_ctrls0.wrQLenPdf::9                      2                       # What write queue length does an incoming req see
system.mem_ctrls0.wrQLenPdf::10                     2                       # What write queue length does an incoming req see
system.mem_ctrls0.wrQLenPdf::11                     2                       # What write queue length does an incoming req see
system.mem_ctrls0.wrQLenPdf::12                     2                       # What write queue length does an incoming req see
system.mem_ctrls0.wrQLenPdf::13                     2                       # What write queue length does an incoming req see
system.mem_ctrls0.wrQLenPdf::14                     2                       # What write queue length does an incoming req see
system.mem_ctrls0.wrQLenPdf::15                118149                       # What write queue length does an incoming req see
system.mem_ctrls0.wrQLenPdf::16                121529                       # What write queue length does an incoming req see
system.mem_ctrls0.wrQLenPdf::17                144168                       # What write queue length does an incoming req see
system.mem_ctrls0.wrQLenPdf::18                146334                       # What write queue length does an incoming req see
system.mem_ctrls0.wrQLenPdf::19                146644                       # What write queue length does an incoming req see
system.mem_ctrls0.wrQLenPdf::20                146798                       # What write queue length does an incoming req see
system.mem_ctrls0.wrQLenPdf::21                147080                       # What write queue length does an incoming req see
system.mem_ctrls0.wrQLenPdf::22                148131                       # What write queue length does an incoming req see
system.mem_ctrls0.wrQLenPdf::23                147630                       # What write queue length does an incoming req see
system.mem_ctrls0.wrQLenPdf::24                146852                       # What write queue length does an incoming req see
system.mem_ctrls0.wrQLenPdf::25                146651                       # What write queue length does an incoming req see
system.mem_ctrls0.wrQLenPdf::26                146632                       # What write queue length does an incoming req see
system.mem_ctrls0.wrQLenPdf::27                146589                       # What write queue length does an incoming req see
system.mem_ctrls0.wrQLenPdf::28                146677                       # What write queue length does an incoming req see
system.mem_ctrls0.wrQLenPdf::29                146777                       # What write queue length does an incoming req see
system.mem_ctrls0.wrQLenPdf::30                147500                       # What write queue length does an incoming req see
system.mem_ctrls0.wrQLenPdf::31                146131                       # What write queue length does an incoming req see
system.mem_ctrls0.wrQLenPdf::32                146092                       # What write queue length does an incoming req see
system.mem_ctrls0.wrQLenPdf::33                   172                       # What write queue length does an incoming req see
system.mem_ctrls0.wrQLenPdf::34                    52                       # What write queue length does an incoming req see
system.mem_ctrls0.wrQLenPdf::35                    11                       # What write queue length does an incoming req see
system.mem_ctrls0.wrQLenPdf::36                     2                       # What write queue length does an incoming req see
system.mem_ctrls0.wrQLenPdf::37                     0                       # What write queue length does an incoming req see
system.mem_ctrls0.wrQLenPdf::38                     0                       # What write queue length does an incoming req see
system.mem_ctrls0.wrQLenPdf::39                     0                       # What write queue length does an incoming req see
system.mem_ctrls0.wrQLenPdf::40                     0                       # What write queue length does an incoming req see
system.mem_ctrls0.wrQLenPdf::41                     0                       # What write queue length does an incoming req see
system.mem_ctrls0.wrQLenPdf::42                     0                       # What write queue length does an incoming req see
system.mem_ctrls0.wrQLenPdf::43                     0                       # What write queue length does an incoming req see
system.mem_ctrls0.wrQLenPdf::44                     0                       # What write queue length does an incoming req see
system.mem_ctrls0.wrQLenPdf::45                     0                       # What write queue length does an incoming req see
system.mem_ctrls0.wrQLenPdf::46                     0                       # What write queue length does an incoming req see
system.mem_ctrls0.wrQLenPdf::47                     0                       # What write queue length does an incoming req see
system.mem_ctrls0.wrQLenPdf::48                     0                       # What write queue length does an incoming req see
system.mem_ctrls0.wrQLenPdf::49                     0                       # What write queue length does an incoming req see
system.mem_ctrls0.wrQLenPdf::50                     0                       # What write queue length does an incoming req see
system.mem_ctrls0.wrQLenPdf::51                     0                       # What write queue length does an incoming req see
system.mem_ctrls0.wrQLenPdf::52                     0                       # What write queue length does an incoming req see
system.mem_ctrls0.wrQLenPdf::53                     0                       # What write queue length does an incoming req see
system.mem_ctrls0.wrQLenPdf::54                     0                       # What write queue length does an incoming req see
system.mem_ctrls0.wrQLenPdf::55                     0                       # What write queue length does an incoming req see
system.mem_ctrls0.wrQLenPdf::56                     0                       # What write queue length does an incoming req see
system.mem_ctrls0.wrQLenPdf::57                     0                       # What write queue length does an incoming req see
system.mem_ctrls0.wrQLenPdf::58                     0                       # What write queue length does an incoming req see
system.mem_ctrls0.wrQLenPdf::59                     0                       # What write queue length does an incoming req see
system.mem_ctrls0.wrQLenPdf::60                     0                       # What write queue length does an incoming req see
system.mem_ctrls0.wrQLenPdf::61                     0                       # What write queue length does an incoming req see
system.mem_ctrls0.wrQLenPdf::62                     0                       # What write queue length does an incoming req see
system.mem_ctrls0.wrQLenPdf::63                     0                       # What write queue length does an incoming req see
system.mem_ctrls0.bytesPerActivate::samples      4233401                       # Bytes accessed per row activation
system.mem_ctrls0.bytesPerActivate::mean   169.249241                       # Bytes accessed per row activation
system.mem_ctrls0.bytesPerActivate::gmean   114.218959                       # Bytes accessed per row activation
system.mem_ctrls0.bytesPerActivate::stdev   199.859069                       # Bytes accessed per row activation
system.mem_ctrls0.bytesPerActivate::0-127      2348563     55.48%     55.48% # Bytes accessed per row activation
system.mem_ctrls0.bytesPerActivate::128-255      1067413     25.21%     80.69% # Bytes accessed per row activation
system.mem_ctrls0.bytesPerActivate::256-383       326623      7.72%     88.41% # Bytes accessed per row activation
system.mem_ctrls0.bytesPerActivate::384-511       142294      3.36%     91.77% # Bytes accessed per row activation
system.mem_ctrls0.bytesPerActivate::512-639       106824      2.52%     94.29% # Bytes accessed per row activation
system.mem_ctrls0.bytesPerActivate::640-767        78541      1.86%     96.15% # Bytes accessed per row activation
system.mem_ctrls0.bytesPerActivate::768-895        52700      1.24%     97.39% # Bytes accessed per row activation
system.mem_ctrls0.bytesPerActivate::896-1023        35136      0.83%     98.22% # Bytes accessed per row activation
system.mem_ctrls0.bytesPerActivate::1024-1151        75307      1.78%    100.00% # Bytes accessed per row activation
system.mem_ctrls0.bytesPerActivate::total      4233401                       # Bytes accessed per row activation
system.mem_ctrls0.rdPerTurnAround::samples       146002                       # Reads before turning the bus around for writes
system.mem_ctrls0.rdPerTurnAround::mean     58.937843                       # Reads before turning the bus around for writes
system.mem_ctrls0.rdPerTurnAround::stdev   529.564096                       # Reads before turning the bus around for writes
system.mem_ctrls0.rdPerTurnAround::0-2047       145805     99.87%     99.87% # Reads before turning the bus around for writes
system.mem_ctrls0.rdPerTurnAround::2048-4095           66      0.05%     99.91% # Reads before turning the bus around for writes
system.mem_ctrls0.rdPerTurnAround::4096-6143            7      0.00%     99.92% # Reads before turning the bus around for writes
system.mem_ctrls0.rdPerTurnAround::6144-8191            9      0.01%     99.92% # Reads before turning the bus around for writes
system.mem_ctrls0.rdPerTurnAround::8192-10239            6      0.00%     99.93% # Reads before turning the bus around for writes
system.mem_ctrls0.rdPerTurnAround::10240-12287            9      0.01%     99.93% # Reads before turning the bus around for writes
system.mem_ctrls0.rdPerTurnAround::12288-14335            8      0.01%     99.94% # Reads before turning the bus around for writes
system.mem_ctrls0.rdPerTurnAround::14336-16383           12      0.01%     99.95% # Reads before turning the bus around for writes
system.mem_ctrls0.rdPerTurnAround::16384-18431           19      0.01%     99.96% # Reads before turning the bus around for writes
system.mem_ctrls0.rdPerTurnAround::18432-20479           38      0.03%     99.98% # Reads before turning the bus around for writes
system.mem_ctrls0.rdPerTurnAround::20480-22527           16      0.01%    100.00% # Reads before turning the bus around for writes
system.mem_ctrls0.rdPerTurnAround::22528-24575            6      0.00%    100.00% # Reads before turning the bus around for writes
system.mem_ctrls0.rdPerTurnAround::45056-47103            1      0.00%    100.00% # Reads before turning the bus around for writes
system.mem_ctrls0.rdPerTurnAround::total       146002                       # Reads before turning the bus around for writes
system.mem_ctrls0.wrPerTurnAround::samples       146002                       # Writes before turning the bus around for reads
system.mem_ctrls0.wrPerTurnAround::mean     17.716298                       # Writes before turning the bus around for reads
system.mem_ctrls0.wrPerTurnAround::gmean    17.695655                       # Writes before turning the bus around for reads
system.mem_ctrls0.wrPerTurnAround::stdev     0.840022                       # Writes before turning the bus around for reads
system.mem_ctrls0.wrPerTurnAround::16           24712     16.93%     16.93% # Writes before turning the bus around for reads
system.mem_ctrls0.wrPerTurnAround::17            2603      1.78%     18.71% # Writes before turning the bus around for reads
system.mem_ctrls0.wrPerTurnAround::18          109274     74.84%     93.55% # Writes before turning the bus around for reads
system.mem_ctrls0.wrPerTurnAround::19            8354      5.72%     99.27% # Writes before turning the bus around for reads
system.mem_ctrls0.wrPerTurnAround::20             952      0.65%     99.93% # Writes before turning the bus around for reads
system.mem_ctrls0.wrPerTurnAround::21              85      0.06%     99.98% # Writes before turning the bus around for reads
system.mem_ctrls0.wrPerTurnAround::22              17      0.01%    100.00% # Writes before turning the bus around for reads
system.mem_ctrls0.wrPerTurnAround::23               5      0.00%    100.00% # Writes before turning the bus around for reads
system.mem_ctrls0.wrPerTurnAround::total       146002                       # Writes before turning the bus around for reads
system.mem_ctrls0.totQLat                165831926582                       # Total ticks spent queuing
system.mem_ctrls0.totMemAccLat           327245126582                       # Total ticks spent from burst creation until serviced by the DRAM
system.mem_ctrls0.totBusLat               43043520000                       # Total ticks spent in databus transfers
system.mem_ctrls0.avgQLat                    19263.29                       # Average queueing delay per DRAM burst
system.mem_ctrls0.avgBusLat                   5000.00                       # Average bus latency per DRAM burst
system.mem_ctrls0.avgMemAccLat               38013.29                       # Average memory access latency per DRAM burst
system.mem_ctrls0.avgRdBW                      140.28                       # Average DRAM read bandwidth in MiByte/s
system.mem_ctrls0.avgWrBW                       42.15                       # Average achieved write bandwidth in MiByte/s
system.mem_ctrls0.avgRdBWSys                   140.35                       # Average system read bandwidth in MiByte/s
system.mem_ctrls0.avgWrBWSys                    42.15                       # Average system write bandwidth in MiByte/s
system.mem_ctrls0.peakBW                     12800.00                       # Theoretical peak bandwidth in MiByte/s
system.mem_ctrls0.busUtil                        1.43                       # Data bus utilization in percentage
system.mem_ctrls0.busUtilRead                    1.10                       # Data bus utilization in percentage for reads
system.mem_ctrls0.busUtilWrite                   0.33                       # Data bus utilization in percentage for writes
system.mem_ctrls0.avgRdQLen                      1.03                       # Average read queue length when enqueuing
system.mem_ctrls0.avgWrQLen                     24.63                       # Average write queue length when enqueuing
system.mem_ctrls0.readRowHits                 5767036                       # Number of row buffer hits during reads
system.mem_ctrls0.writeRowHits                1194876                       # Number of row buffer hits during writes
system.mem_ctrls0.readRowHitRate                66.99                       # Row buffer hit rate for reads
system.mem_ctrls0.writeRowHitRate               46.19                       # Row buffer hit rate for writes
system.mem_ctrls0.avgGap                    350689.80                       # Average gap between requests
system.mem_ctrls0.pageHitRate                   62.19                       # Row buffer hit rate, read and write combined
system.mem_ctrls0_0.actEnergy             15139713120                       # Energy for activate commands per rank (pJ)
system.mem_ctrls0_0.preEnergy              8046925590                       # Energy for precharge commands per rank (pJ)
system.mem_ctrls0_0.readEnergy            31007563440                       # Energy for read commands per rank (pJ)
system.mem_ctrls0_0.writeEnergy            6779955240                       # Energy for write commands per rank (pJ)
system.mem_ctrls0_0.refreshEnergy        300725527440.000061                       # Energy for refresh commands per rank (pJ)
system.mem_ctrls0_0.actBackEnergy        183548796240                       # Energy for active background per rank (pJ)
system.mem_ctrls0_0.preBackEnergy          8887264320                       # Energy for precharge background per rank (pJ)
system.mem_ctrls0_0.actPowerDownEnergy   1229172606900                       # Energy for active power-down per rank (pJ)
system.mem_ctrls0_0.prePowerDownEnergy   196738985760                       # Energy for precharge power-down per rank (pJ)
system.mem_ctrls0_0.selfRefreshEnergy     84045201840                       # Energy for self refresh per rank (pJ)
system.mem_ctrls0_0.totalEnergy          2064362819130                       # Total energy per rank (pJ)
system.mem_ctrls0_0.averagePower           525.604387                       # Core power per rank (mW)
system.mem_ctrls0_0.totalIdleTime        3501337449043                       # Total Idle time Per DRAM Rank
system.mem_ctrls0_0.memoryStateTime::IDLE   9376643783                       # Time in different power states
system.mem_ctrls0_0.memoryStateTime::REF 127392416000                       # Time in different power states
system.mem_ctrls0_0.memoryStateTime::SREF 293438548483                       # Time in different power states
system.mem_ctrls0_0.memoryStateTime::PRE_PDN 512340027607                       # Time in different power states
system.mem_ctrls0_0.memoryStateTime::ACT 289490736605                       # Time in different power states
system.mem_ctrls0_0.memoryStateTime::ACT_PDN 2695559658961                       # Time in different power states
system.mem_ctrls0_1.actEnergy             15086812860                       # Energy for activate commands per rank (pJ)
system.mem_ctrls0_1.preEnergy              8018831205                       # Energy for precharge commands per rank (pJ)
system.mem_ctrls0_1.readEnergy            30458583120                       # Energy for read commands per rank (pJ)
system.mem_ctrls0_1.writeEnergy            6722175060                       # Energy for write commands per rank (pJ)
system.mem_ctrls0_1.refreshEnergy        300464305440.000061                       # Energy for refresh commands per rank (pJ)
system.mem_ctrls0_1.actBackEnergy        188469496800                       # Energy for active background per rank (pJ)
system.mem_ctrls0_1.preBackEnergy          8994131040                       # Energy for precharge background per rank (pJ)
system.mem_ctrls0_1.actPowerDownEnergy   1216864107840                       # Energy for active power-down per rank (pJ)
system.mem_ctrls0_1.prePowerDownEnergy   198383753760                       # Energy for precharge power-down per rank (pJ)
system.mem_ctrls0_1.selfRefreshEnergy     87469149615                       # Energy for self refresh per rank (pJ)
system.mem_ctrls0_1.totalEnergy          2061175616790                       # Total energy per rank (pJ)
system.mem_ctrls0_1.averagePower           524.792905                       # Core power per rank (mW)
system.mem_ctrls0_1.totalIdleTime        3490324663184                       # Total Idle time Per DRAM Rank
system.mem_ctrls0_1.memoryStateTime::IDLE   9710576712                       # Time in different power states
system.mem_ctrls0_1.memoryStateTime::REF 127281982000                       # Time in different power states
system.mem_ctrls0_1.memoryStateTime::SREF 305136009648                       # Time in different power states
system.mem_ctrls0_1.memoryStateTime::PRE_PDN 516625658672                       # Time in different power states
system.mem_ctrls0_1.memoryStateTime::ACT 300280648423                       # Time in different power states
system.mem_ctrls0_1.memoryStateTime::ACT_PDN 2668563155984                       # Time in different power states
system.mem_ctrls1.pwrStateResidencyTicks::UNDEFINED 73957570612785                       # Cumulative time (in ticks) in various power states
system.mem_ctrls1.bytes_read::cpu.inst             64                       # Number of bytes read from this memory
system.mem_ctrls1.bytes_read::switch_cpus.inst       136960                       # Number of bytes read from this memory
system.mem_ctrls1.bytes_read::switch_cpus.data    456073664                       # Number of bytes read from this memory
system.mem_ctrls1.bytes_read::switch_cpus_1.inst        45056                       # Number of bytes read from this memory
system.mem_ctrls1.bytes_read::switch_cpus_1.data     95657856                       # Number of bytes read from this memory
system.mem_ctrls1.bytes_read::total         551913600                       # Number of bytes read from this memory
system.mem_ctrls1.bytes_inst_read::cpu.inst           64                       # Number of instructions bytes read from this memory
system.mem_ctrls1.bytes_inst_read::switch_cpus.inst       136960                       # Number of instructions bytes read from this memory
system.mem_ctrls1.bytes_inst_read::switch_cpus_1.inst        45056                       # Number of instructions bytes read from this memory
system.mem_ctrls1.bytes_inst_read::total       182080                       # Number of instructions bytes read from this memory
system.mem_ctrls1.bytes_written::writebacks    165559552                       # Number of bytes written to this memory
system.mem_ctrls1.bytes_written::total      165559552                       # Number of bytes written to this memory
system.mem_ctrls1.num_reads::cpu.inst               1                       # Number of read requests responded to by this memory
system.mem_ctrls1.num_reads::switch_cpus.inst         2140                       # Number of read requests responded to by this memory
system.mem_ctrls1.num_reads::switch_cpus.data      7126151                       # Number of read requests responded to by this memory
system.mem_ctrls1.num_reads::switch_cpus_1.inst          704                       # Number of read requests responded to by this memory
system.mem_ctrls1.num_reads::switch_cpus_1.data      1494654                       # Number of read requests responded to by this memory
system.mem_ctrls1.num_reads::total            8623650                       # Number of read requests responded to by this memory
system.mem_ctrls1.num_writes::writebacks      2586868                       # Number of write requests responded to by this memory
system.mem_ctrls1.num_writes::total           2586868                       # Number of write requests responded to by this memory
system.mem_ctrls1.bw_read::cpu.inst                16                       # Total read bandwidth from this memory (bytes/s)
system.mem_ctrls1.bw_read::switch_cpus.inst        34871                       # Total read bandwidth from this memory (bytes/s)
system.mem_ctrls1.bw_read::switch_cpus.data    116120250                       # Total read bandwidth from this memory (bytes/s)
system.mem_ctrls1.bw_read::switch_cpus_1.inst        11472                       # Total read bandwidth from this memory (bytes/s)
system.mem_ctrls1.bw_read::switch_cpus_1.data     24355307                       # Total read bandwidth from this memory (bytes/s)
system.mem_ctrls1.bw_read::total            140521916                       # Total read bandwidth from this memory (bytes/s)
system.mem_ctrls1.bw_inst_read::cpu.inst           16                       # Instruction read bandwidth from this memory (bytes/s)
system.mem_ctrls1.bw_inst_read::switch_cpus.inst        34871                       # Instruction read bandwidth from this memory (bytes/s)
system.mem_ctrls1.bw_inst_read::switch_cpus_1.inst        11472                       # Instruction read bandwidth from this memory (bytes/s)
system.mem_ctrls1.bw_inst_read::total           46359                       # Instruction read bandwidth from this memory (bytes/s)
system.mem_ctrls1.bw_write::writebacks       42152876                       # Write bandwidth from this memory (bytes/s)
system.mem_ctrls1.bw_write::total            42152876                       # Write bandwidth from this memory (bytes/s)
system.mem_ctrls1.bw_total::writebacks       42152876                       # Total bandwidth to/from this memory (bytes/s)
system.mem_ctrls1.bw_total::cpu.inst               16                       # Total bandwidth to/from this memory (bytes/s)
system.mem_ctrls1.bw_total::switch_cpus.inst        34871                       # Total bandwidth to/from this memory (bytes/s)
system.mem_ctrls1.bw_total::switch_cpus.data    116120250                       # Total bandwidth to/from this memory (bytes/s)
system.mem_ctrls1.bw_total::switch_cpus_1.inst        11472                       # Total bandwidth to/from this memory (bytes/s)
system.mem_ctrls1.bw_total::switch_cpus_1.data     24355307                       # Total bandwidth to/from this memory (bytes/s)
system.mem_ctrls1.bw_total::total           182674792                       # Total bandwidth to/from this memory (bytes/s)
system.mem_ctrls1.readReqs                    8623650                       # Number of read requests accepted
system.mem_ctrls1.writeReqs                   2586868                       # Number of write requests accepted
system.mem_ctrls1.readBursts                  8623650                       # Number of DRAM read bursts, including those serviced by the write queue
system.mem_ctrls1.writeBursts                 2586868                       # Number of DRAM write bursts, including those merged in the write queue
system.mem_ctrls1.bytesReadDRAM             551657536                       # Total number of bytes read from DRAM
system.mem_ctrls1.bytesReadWrQ                 256064                       # Total number of bytes read from write queue
system.mem_ctrls1.bytesWritten              165557568                       # Total number of bytes written to DRAM
system.mem_ctrls1.bytesReadSys              551913600                       # Total read bytes from the system interface side
system.mem_ctrls1.bytesWrittenSys           165559552                       # Total written bytes from the system interface side
system.mem_ctrls1.servicedByWrQ                  4001                       # Number of DRAM read bursts serviced by the write queue
system.mem_ctrls1.mergedWrBursts                    0                       # Number of DRAM write bursts merged with an existing one
system.mem_ctrls1.neitherReadNorWriteReqs            0                       # Number of requests that are neither read nor write
system.mem_ctrls1.perBankRdBursts::0           572810                       # Per bank write bursts
system.mem_ctrls1.perBankRdBursts::1           545578                       # Per bank write bursts
system.mem_ctrls1.perBankRdBursts::2           541706                       # Per bank write bursts
system.mem_ctrls1.perBankRdBursts::3           547351                       # Per bank write bursts
system.mem_ctrls1.perBankRdBursts::4           539398                       # Per bank write bursts
system.mem_ctrls1.perBankRdBursts::5           548316                       # Per bank write bursts
system.mem_ctrls1.perBankRdBursts::6           524402                       # Per bank write bursts
system.mem_ctrls1.perBankRdBursts::7           525524                       # Per bank write bursts
system.mem_ctrls1.perBankRdBursts::8           538988                       # Per bank write bursts
system.mem_ctrls1.perBankRdBursts::9           531499                       # Per bank write bursts
system.mem_ctrls1.perBankRdBursts::10          533087                       # Per bank write bursts
system.mem_ctrls1.perBankRdBursts::11          536043                       # Per bank write bursts
system.mem_ctrls1.perBankRdBursts::12          530234                       # Per bank write bursts
system.mem_ctrls1.perBankRdBursts::13          532411                       # Per bank write bursts
system.mem_ctrls1.perBankRdBursts::14          532097                       # Per bank write bursts
system.mem_ctrls1.perBankRdBursts::15          540205                       # Per bank write bursts
system.mem_ctrls1.perBankWrBursts::0           175747                       # Per bank write bursts
system.mem_ctrls1.perBankWrBursts::1           157096                       # Per bank write bursts
system.mem_ctrls1.perBankWrBursts::2           164889                       # Per bank write bursts
system.mem_ctrls1.perBankWrBursts::3           168911                       # Per bank write bursts
system.mem_ctrls1.perBankWrBursts::4           161096                       # Per bank write bursts
system.mem_ctrls1.perBankWrBursts::5           162289                       # Per bank write bursts
system.mem_ctrls1.perBankWrBursts::6           153522                       # Per bank write bursts
system.mem_ctrls1.perBankWrBursts::7           155034                       # Per bank write bursts
system.mem_ctrls1.perBankWrBursts::8           160264                       # Per bank write bursts
system.mem_ctrls1.perBankWrBursts::9           158081                       # Per bank write bursts
system.mem_ctrls1.perBankWrBursts::10          155608                       # Per bank write bursts
system.mem_ctrls1.perBankWrBursts::11          155993                       # Per bank write bursts
system.mem_ctrls1.perBankWrBursts::12          155694                       # Per bank write bursts
system.mem_ctrls1.perBankWrBursts::13          160501                       # Per bank write bursts
system.mem_ctrls1.perBankWrBursts::14          170247                       # Per bank write bursts
system.mem_ctrls1.perBankWrBursts::15          171865                       # Per bank write bursts
system.mem_ctrls1.numRdRetry                        0                       # Number of times read queue was full causing retry
system.mem_ctrls1.numWrRetry                        0                       # Number of times write queue was full causing retry
system.mem_ctrls1.totGap                 3927597611859                       # Total gap between requests
system.mem_ctrls1.readPktSize::0                    0                       # Read request sizes (log2)
system.mem_ctrls1.readPktSize::1                    0                       # Read request sizes (log2)
system.mem_ctrls1.readPktSize::2                    0                       # Read request sizes (log2)
system.mem_ctrls1.readPktSize::3                    0                       # Read request sizes (log2)
system.mem_ctrls1.readPktSize::4                    0                       # Read request sizes (log2)
system.mem_ctrls1.readPktSize::5                    0                       # Read request sizes (log2)
system.mem_ctrls1.readPktSize::6              8623650                       # Read request sizes (log2)
system.mem_ctrls1.writePktSize::0                   0                       # Write request sizes (log2)
system.mem_ctrls1.writePktSize::1                   0                       # Write request sizes (log2)
system.mem_ctrls1.writePktSize::2                   0                       # Write request sizes (log2)
system.mem_ctrls1.writePktSize::3                   0                       # Write request sizes (log2)
system.mem_ctrls1.writePktSize::4                   0                       # Write request sizes (log2)
system.mem_ctrls1.writePktSize::5                   0                       # Write request sizes (log2)
system.mem_ctrls1.writePktSize::6             2586868                       # Write request sizes (log2)
system.mem_ctrls1.rdQLenPdf::0                8143058                       # What read queue length does an incoming req see
system.mem_ctrls1.rdQLenPdf::1                 409180                       # What read queue length does an incoming req see
system.mem_ctrls1.rdQLenPdf::2                  62604                       # What read queue length does an incoming req see
system.mem_ctrls1.rdQLenPdf::3                   4807                       # What read queue length does an incoming req see
system.mem_ctrls1.rdQLenPdf::4                      0                       # What read queue length does an incoming req see
system.mem_ctrls1.rdQLenPdf::5                      0                       # What read queue length does an incoming req see
system.mem_ctrls1.rdQLenPdf::6                      0                       # What read queue length does an incoming req see
system.mem_ctrls1.rdQLenPdf::7                      0                       # What read queue length does an incoming req see
system.mem_ctrls1.rdQLenPdf::8                      0                       # What read queue length does an incoming req see
system.mem_ctrls1.rdQLenPdf::9                      0                       # What read queue length does an incoming req see
system.mem_ctrls1.rdQLenPdf::10                     0                       # What read queue length does an incoming req see
system.mem_ctrls1.rdQLenPdf::11                     0                       # What read queue length does an incoming req see
system.mem_ctrls1.rdQLenPdf::12                     0                       # What read queue length does an incoming req see
system.mem_ctrls1.rdQLenPdf::13                     0                       # What read queue length does an incoming req see
system.mem_ctrls1.rdQLenPdf::14                     0                       # What read queue length does an incoming req see
system.mem_ctrls1.rdQLenPdf::15                     0                       # What read queue length does an incoming req see
system.mem_ctrls1.rdQLenPdf::16                     0                       # What read queue length does an incoming req see
system.mem_ctrls1.rdQLenPdf::17                     0                       # What read queue length does an incoming req see
system.mem_ctrls1.rdQLenPdf::18                     0                       # What read queue length does an incoming req see
system.mem_ctrls1.rdQLenPdf::19                     0                       # What read queue length does an incoming req see
system.mem_ctrls1.rdQLenPdf::20                     0                       # What read queue length does an incoming req see
system.mem_ctrls1.rdQLenPdf::21                     0                       # What read queue length does an incoming req see
system.mem_ctrls1.rdQLenPdf::22                     0                       # What read queue length does an incoming req see
system.mem_ctrls1.rdQLenPdf::23                     0                       # What read queue length does an incoming req see
system.mem_ctrls1.rdQLenPdf::24                     0                       # What read queue length does an incoming req see
system.mem_ctrls1.rdQLenPdf::25                     0                       # What read queue length does an incoming req see
system.mem_ctrls1.rdQLenPdf::26                     0                       # What read queue length does an incoming req see
system.mem_ctrls1.rdQLenPdf::27                     0                       # What read queue length does an incoming req see
system.mem_ctrls1.rdQLenPdf::28                     0                       # What read queue length does an incoming req see
system.mem_ctrls1.rdQLenPdf::29                     0                       # What read queue length does an incoming req see
system.mem_ctrls1.rdQLenPdf::30                     0                       # What read queue length does an incoming req see
system.mem_ctrls1.rdQLenPdf::31                     0                       # What read queue length does an incoming req see
system.mem_ctrls1.wrQLenPdf::0                      2                       # What write queue length does an incoming req see
system.mem_ctrls1.wrQLenPdf::1                      2                       # What write queue length does an incoming req see
system.mem_ctrls1.wrQLenPdf::2                      2                       # What write queue length does an incoming req see
system.mem_ctrls1.wrQLenPdf::3                      2                       # What write queue length does an incoming req see
system.mem_ctrls1.wrQLenPdf::4                      2                       # What write queue length does an incoming req see
system.mem_ctrls1.wrQLenPdf::5                      2                       # What write queue length does an incoming req see
system.mem_ctrls1.wrQLenPdf::6                      2                       # What write queue length does an incoming req see
system.mem_ctrls1.wrQLenPdf::7                      2                       # What write queue length does an incoming req see
system.mem_ctrls1.wrQLenPdf::8                      2                       # What write queue length does an incoming req see
system.mem_ctrls1.wrQLenPdf::9                      2                       # What write queue length does an incoming req see
system.mem_ctrls1.wrQLenPdf::10                     2                       # What write queue length does an incoming req see
system.mem_ctrls1.wrQLenPdf::11                     2                       # What write queue length does an incoming req see
system.mem_ctrls1.wrQLenPdf::12                     2                       # What write queue length does an incoming req see
system.mem_ctrls1.wrQLenPdf::13                     2                       # What write queue length does an incoming req see
system.mem_ctrls1.wrQLenPdf::14                     2                       # What write queue length does an incoming req see
system.mem_ctrls1.wrQLenPdf::15                118474                       # What write queue length does an incoming req see
system.mem_ctrls1.wrQLenPdf::16                121859                       # What write queue length does an incoming req see
system.mem_ctrls1.wrQLenPdf::17                144063                       # What write queue length does an incoming req see
system.mem_ctrls1.wrQLenPdf::18                146367                       # What write queue length does an incoming req see
system.mem_ctrls1.wrQLenPdf::19                146591                       # What write queue length does an incoming req see
system.mem_ctrls1.wrQLenPdf::20                146762                       # What write queue length does an incoming req see
system.mem_ctrls1.wrQLenPdf::21                147207                       # What write queue length does an incoming req see
system.mem_ctrls1.wrQLenPdf::22                148067                       # What write queue length does an incoming req see
system.mem_ctrls1.wrQLenPdf::23                147566                       # What write queue length does an incoming req see
system.mem_ctrls1.wrQLenPdf::24                146826                       # What write queue length does an incoming req see
system.mem_ctrls1.wrQLenPdf::25                146596                       # What write queue length does an incoming req see
system.mem_ctrls1.wrQLenPdf::26                146596                       # What write queue length does an incoming req see
system.mem_ctrls1.wrQLenPdf::27                146576                       # What write queue length does an incoming req see
system.mem_ctrls1.wrQLenPdf::28                146644                       # What write queue length does an incoming req see
system.mem_ctrls1.wrQLenPdf::29                146753                       # What write queue length does an incoming req see
system.mem_ctrls1.wrQLenPdf::30                147490                       # What write queue length does an incoming req see
system.mem_ctrls1.wrQLenPdf::31                146099                       # What write queue length does an incoming req see
system.mem_ctrls1.wrQLenPdf::32                146068                       # What write queue length does an incoming req see
system.mem_ctrls1.wrQLenPdf::33                   189                       # What write queue length does an incoming req see
system.mem_ctrls1.wrQLenPdf::34                    36                       # What write queue length does an incoming req see
system.mem_ctrls1.wrQLenPdf::35                     7                       # What write queue length does an incoming req see
system.mem_ctrls1.wrQLenPdf::36                     1                       # What write queue length does an incoming req see
system.mem_ctrls1.wrQLenPdf::37                     1                       # What write queue length does an incoming req see
system.mem_ctrls1.wrQLenPdf::38                     0                       # What write queue length does an incoming req see
system.mem_ctrls1.wrQLenPdf::39                     0                       # What write queue length does an incoming req see
system.mem_ctrls1.wrQLenPdf::40                     0                       # What write queue length does an incoming req see
system.mem_ctrls1.wrQLenPdf::41                     0                       # What write queue length does an incoming req see
system.mem_ctrls1.wrQLenPdf::42                     0                       # What write queue length does an incoming req see
system.mem_ctrls1.wrQLenPdf::43                     0                       # What write queue length does an incoming req see
system.mem_ctrls1.wrQLenPdf::44                     0                       # What write queue length does an incoming req see
system.mem_ctrls1.wrQLenPdf::45                     0                       # What write queue length does an incoming req see
system.mem_ctrls1.wrQLenPdf::46                     0                       # What write queue length does an incoming req see
system.mem_ctrls1.wrQLenPdf::47                     0                       # What write queue length does an incoming req see
system.mem_ctrls1.wrQLenPdf::48                     0                       # What write queue length does an incoming req see
system.mem_ctrls1.wrQLenPdf::49                     0                       # What write queue length does an incoming req see
system.mem_ctrls1.wrQLenPdf::50                     0                       # What write queue length does an incoming req see
system.mem_ctrls1.wrQLenPdf::51                     0                       # What write queue length does an incoming req see
system.mem_ctrls1.wrQLenPdf::52                     0                       # What write queue length does an incoming req see
system.mem_ctrls1.wrQLenPdf::53                     0                       # What write queue length does an incoming req see
system.mem_ctrls1.wrQLenPdf::54                     0                       # What write queue length does an incoming req see
system.mem_ctrls1.wrQLenPdf::55                     0                       # What write queue length does an incoming req see
system.mem_ctrls1.wrQLenPdf::56                     0                       # What write queue length does an incoming req see
system.mem_ctrls1.wrQLenPdf::57                     0                       # What write queue length does an incoming req see
system.mem_ctrls1.wrQLenPdf::58                     0                       # What write queue length does an incoming req see
system.mem_ctrls1.wrQLenPdf::59                     0                       # What write queue length does an incoming req see
system.mem_ctrls1.wrQLenPdf::60                     0                       # What write queue length does an incoming req see
system.mem_ctrls1.wrQLenPdf::61                     0                       # What write queue length does an incoming req see
system.mem_ctrls1.wrQLenPdf::62                     0                       # What write queue length does an incoming req see
system.mem_ctrls1.wrQLenPdf::63                     0                       # What write queue length does an incoming req see
system.mem_ctrls1.bytesPerActivate::samples      4241158                       # Bytes accessed per row activation
system.mem_ctrls1.bytesPerActivate::mean   169.108169                       # Bytes accessed per row activation
system.mem_ctrls1.bytesPerActivate::gmean   114.141080                       # Bytes accessed per row activation
system.mem_ctrls1.bytesPerActivate::stdev   199.725387                       # Bytes accessed per row activation
system.mem_ctrls1.bytesPerActivate::0-127      2354889     55.52%     55.52% # Bytes accessed per row activation
system.mem_ctrls1.bytesPerActivate::128-255      1068762     25.20%     80.72% # Bytes accessed per row activation
system.mem_ctrls1.bytesPerActivate::256-383       326759      7.70%     88.43% # Bytes accessed per row activation
system.mem_ctrls1.bytesPerActivate::384-511       141887      3.35%     91.77% # Bytes accessed per row activation
system.mem_ctrls1.bytesPerActivate::512-639       106171      2.50%     94.28% # Bytes accessed per row activation
system.mem_ctrls1.bytesPerActivate::640-767        79346      1.87%     96.15% # Bytes accessed per row activation
system.mem_ctrls1.bytesPerActivate::768-895        52578      1.24%     97.39% # Bytes accessed per row activation
system.mem_ctrls1.bytesPerActivate::896-1023        36246      0.85%     98.24% # Bytes accessed per row activation
system.mem_ctrls1.bytesPerActivate::1024-1151        74520      1.76%    100.00% # Bytes accessed per row activation
system.mem_ctrls1.bytesPerActivate::total      4241158                       # Bytes accessed per row activation
system.mem_ctrls1.rdPerTurnAround::samples       145972                       # Reads before turning the bus around for writes
system.mem_ctrls1.rdPerTurnAround::mean     59.006556                       # Reads before turning the bus around for writes
system.mem_ctrls1.rdPerTurnAround::stdev   524.720160                       # Reads before turning the bus around for writes
system.mem_ctrls1.rdPerTurnAround::0-2047       145777     99.87%     99.87% # Reads before turning the bus around for writes
system.mem_ctrls1.rdPerTurnAround::2048-4095           57      0.04%     99.91% # Reads before turning the bus around for writes
system.mem_ctrls1.rdPerTurnAround::4096-6143           13      0.01%     99.91% # Reads before turning the bus around for writes
system.mem_ctrls1.rdPerTurnAround::6144-8191           11      0.01%     99.92% # Reads before turning the bus around for writes
system.mem_ctrls1.rdPerTurnAround::8192-10239            5      0.00%     99.93% # Reads before turning the bus around for writes
system.mem_ctrls1.rdPerTurnAround::10240-12287            7      0.00%     99.93% # Reads before turning the bus around for writes
system.mem_ctrls1.rdPerTurnAround::12288-14335            5      0.00%     99.93% # Reads before turning the bus around for writes
system.mem_ctrls1.rdPerTurnAround::14336-16383           27      0.02%     99.95% # Reads before turning the bus around for writes
system.mem_ctrls1.rdPerTurnAround::16384-18431           16      0.01%     99.96% # Reads before turning the bus around for writes
system.mem_ctrls1.rdPerTurnAround::18432-20479           27      0.02%     99.98% # Reads before turning the bus around for writes
system.mem_ctrls1.rdPerTurnAround::20480-22527           26      0.02%    100.00% # Reads before turning the bus around for writes
system.mem_ctrls1.rdPerTurnAround::45056-47103            1      0.00%    100.00% # Reads before turning the bus around for writes
system.mem_ctrls1.rdPerTurnAround::total       145972                       # Reads before turning the bus around for writes
system.mem_ctrls1.wrPerTurnAround::samples       145972                       # Writes before turning the bus around for reads
system.mem_ctrls1.wrPerTurnAround::mean     17.721460                       # Writes before turning the bus around for reads
system.mem_ctrls1.wrPerTurnAround::gmean    17.701046                       # Writes before turning the bus around for reads
system.mem_ctrls1.wrPerTurnAround::stdev     0.835604                       # Writes before turning the bus around for reads
system.mem_ctrls1.wrPerTurnAround::16           24287     16.64%     16.64% # Writes before turning the bus around for reads
system.mem_ctrls1.wrPerTurnAround::17            2686      1.84%     18.48% # Writes before turning the bus around for reads
system.mem_ctrls1.wrPerTurnAround::18          109554     75.05%     93.53% # Writes before turning the bus around for reads
system.mem_ctrls1.wrPerTurnAround::19            8454      5.79%     99.32% # Writes before turning the bus around for reads
system.mem_ctrls1.wrPerTurnAround::20             863      0.59%     99.91% # Writes before turning the bus around for reads
system.mem_ctrls1.wrPerTurnAround::21             103      0.07%     99.98% # Writes before turning the bus around for reads
system.mem_ctrls1.wrPerTurnAround::22              21      0.01%    100.00% # Writes before turning the bus around for reads
system.mem_ctrls1.wrPerTurnAround::23               3      0.00%    100.00% # Writes before turning the bus around for reads
system.mem_ctrls1.wrPerTurnAround::31               1      0.00%    100.00% # Writes before turning the bus around for reads
system.mem_ctrls1.wrPerTurnAround::total       145972                       # Writes before turning the bus around for reads
system.mem_ctrls1.totQLat                165674257723                       # Total ticks spent queuing
system.mem_ctrls1.totMemAccLat           327292676473                       # Total ticks spent from burst creation until serviced by the DRAM
system.mem_ctrls1.totBusLat               43098245000                       # Total ticks spent in databus transfers
system.mem_ctrls1.avgQLat                    19220.53                       # Average queueing delay per DRAM burst
system.mem_ctrls1.avgBusLat                   5000.00                       # Average bus latency per DRAM burst
system.mem_ctrls1.avgMemAccLat               37970.53                       # Average memory access latency per DRAM burst
system.mem_ctrls1.avgRdBW                      140.46                       # Average DRAM read bandwidth in MiByte/s
system.mem_ctrls1.avgWrBW                       42.15                       # Average achieved write bandwidth in MiByte/s
system.mem_ctrls1.avgRdBWSys                   140.52                       # Average system read bandwidth in MiByte/s
system.mem_ctrls1.avgWrBWSys                    42.15                       # Average system write bandwidth in MiByte/s
system.mem_ctrls1.peakBW                     12800.00                       # Theoretical peak bandwidth in MiByte/s
system.mem_ctrls1.busUtil                        1.43                       # Data bus utilization in percentage
system.mem_ctrls1.busUtilRead                    1.10                       # Data bus utilization in percentage for reads
system.mem_ctrls1.busUtilWrite                   0.33                       # Data bus utilization in percentage for writes
system.mem_ctrls1.avgRdQLen                      1.03                       # Average read queue length when enqueuing
system.mem_ctrls1.avgWrQLen                     24.42                       # Average write queue length when enqueuing
system.mem_ctrls1.readRowHits                 5771880                       # Number of row buffer hits during reads
system.mem_ctrls1.writeRowHits                1193441                       # Number of row buffer hits during writes
system.mem_ctrls1.readRowHitRate                66.96                       # Row buffer hit rate for reads
system.mem_ctrls1.writeRowHitRate               46.13                       # Row buffer hit rate for writes
system.mem_ctrls1.avgGap                    350349.34                       # Average gap between requests
system.mem_ctrls1.pageHitRate                   62.15                       # Row buffer hit rate, read and write combined
system.mem_ctrls1_0.actEnergy             15170293740                       # Energy for activate commands per rank (pJ)
system.mem_ctrls1_0.preEnergy              8063179575                       # Energy for precharge commands per rank (pJ)
system.mem_ctrls1_0.readEnergy            31023906900                       # Energy for read commands per rank (pJ)
system.mem_ctrls1_0.writeEnergy            6778608480                       # Energy for write commands per rank (pJ)
system.mem_ctrls1_0.refreshEnergy        300327240720.000061                       # Energy for refresh commands per rank (pJ)
system.mem_ctrls1_0.actBackEnergy        182935984110                       # Energy for active background per rank (pJ)
system.mem_ctrls1_0.preBackEnergy          8850648960                       # Energy for precharge background per rank (pJ)
system.mem_ctrls1_0.actPowerDownEnergy   1230569306400                       # Energy for active power-down per rank (pJ)
system.mem_ctrls1_0.prePowerDownEnergy   195202438080                       # Energy for precharge power-down per rank (pJ)
system.mem_ctrls1_0.selfRefreshEnergy     84411907725                       # Energy for self refresh per rank (pJ)
system.mem_ctrls1_0.totalEnergy          2063587647480                       # Total energy per rank (pJ)
system.mem_ctrls1_0.averagePower           525.407028                       # Core power per rank (mW)
system.mem_ctrls1_0.totalIdleTime        3502814581803                       # Total Idle time Per DRAM Rank
system.mem_ctrls1_0.memoryStateTime::IDLE   9261634027                       # Time in different power states
system.mem_ctrls1_0.memoryStateTime::REF 127220468000                       # Time in different power states
system.mem_ctrls1_0.memoryStateTime::SREF 295852197467                       # Time in different power states
system.mem_ctrls1_0.memoryStateTime::PRE_PDN 508342058666                       # Time in different power states
system.mem_ctrls1_0.memoryStateTime::ACT 288300575018                       # Time in different power states
system.mem_ctrls1_0.memoryStateTime::ACT_PDN 2698621098261                       # Time in different power states
system.mem_ctrls1_1.actEnergy             15111624360                       # Energy for activate commands per rank (pJ)
system.mem_ctrls1_1.preEnergy              8032015035                       # Energy for precharge commands per rank (pJ)
system.mem_ctrls1_1.readEnergy            30520386960                       # Energy for read commands per rank (pJ)
system.mem_ctrls1_1.writeEnergy            6724680660                       # Energy for write commands per rank (pJ)
system.mem_ctrls1_1.refreshEnergy        300617965440.000061                       # Energy for refresh commands per rank (pJ)
system.mem_ctrls1_1.actBackEnergy        188887307940                       # Energy for active background per rank (pJ)
system.mem_ctrls1_1.preBackEnergy          8954921280                       # Energy for precharge background per rank (pJ)
system.mem_ctrls1_1.actPowerDownEnergy   1218914929650                       # Energy for active power-down per rank (pJ)
system.mem_ctrls1_1.prePowerDownEnergy   197979551040                       # Energy for precharge power-down per rank (pJ)
system.mem_ctrls1_1.selfRefreshEnergy     86268625020                       # Energy for self refresh per rank (pJ)
system.mem_ctrls1_1.totalEnergy          2062253269035                       # Total energy per rank (pJ)
system.mem_ctrls1_1.averagePower           525.067279                       # Core power per rank (mW)
system.mem_ctrls1_1.totalIdleTime        3489517543493                       # Total Idle time Per DRAM Rank
system.mem_ctrls1_1.memoryStateTime::IDLE   9587874291                       # Time in different power states
system.mem_ctrls1_1.memoryStateTime::REF 127345092000                       # Time in different power states
system.mem_ctrls1_1.memoryStateTime::SREF 300883862041                       # Time in different power states
system.mem_ctrls1_1.memoryStateTime::PRE_PDN 515569447375                       # Time in different power states
system.mem_ctrls1_1.memoryStateTime::ACT 301147399619                       # Time in different power states
system.mem_ctrls1_1.memoryStateTime::ACT_PDN 2673064356113                       # Time in different power states
system.pwrStateResidencyTicks::UNDEFINED 73957570612785                       # Cumulative time (in ticks) in various power states
system.cpu.branchPred.lookups                       1                       # Number of BP lookups
system.cpu.branchPred.condPredicted                 1                       # Number of conditional branches predicted
system.cpu.branchPred.condIncorrect                 0                       # Number of conditional branches incorrect
system.cpu.branchPred.BTBLookups                    0                       # Number of BTB lookups
system.cpu.branchPred.BTBHits                       0                       # Number of BTB hits
system.cpu.branchPred.BTBCorrect                    0                       # Number of correct BTB predictions (this stat may not work properly.
system.cpu.branchPred.BTBHitPct                   nan                       # BTB Hit Percentage
system.cpu.branchPred.usedRAS                       0                       # Number of times the RAS was used to get a target.
system.cpu.branchPred.RASInCorrect                  0                       # Number of incorrect RAS predictions.
system.cpu.branchPred.indirectLookups               0                       # Number of indirect predictor lookups.
system.cpu.branchPred.indirectHits                  0                       # Number of indirect target hits.
system.cpu.branchPred.indirectMisses                0                       # Number of indirect misses.
system.cpu.branchPredindirectMispredicted            0                       # Number of mispredicted indirect branches.
system.cpu_voltage_domain.voltage                   1                       # Voltage in Volts
system.cpu_clk_domain.clock                       333                       # Clock period in ticks
system.cpu.dtb.fetch_hits                           0                       # ITB hits
system.cpu.dtb.fetch_misses                         0                       # ITB misses
system.cpu.dtb.fetch_acv                            0                       # ITB acv
system.cpu.dtb.fetch_accesses                       0                       # ITB accesses
system.cpu.dtb.read_hits                            2                       # DTB read hits
system.cpu.dtb.read_misses                          0                       # DTB read misses
system.cpu.dtb.read_acv                             0                       # DTB read access violations
system.cpu.dtb.read_accesses                        2                       # DTB read accesses
system.cpu.dtb.write_hits                           0                       # DTB write hits
system.cpu.dtb.write_misses                         0                       # DTB write misses
system.cpu.dtb.write_acv                            0                       # DTB write access violations
system.cpu.dtb.write_accesses                       0                       # DTB write accesses
system.cpu.dtb.data_hits                            2                       # DTB hits
system.cpu.dtb.data_misses                          0                       # DTB misses
system.cpu.dtb.data_acv                             0                       # DTB access violations
system.cpu.dtb.data_accesses                        2                       # DTB accesses
system.cpu.itb.fetch_hits                           3                       # ITB hits
system.cpu.itb.fetch_misses                         0                       # ITB misses
system.cpu.itb.fetch_acv                            0                       # ITB acv
system.cpu.itb.fetch_accesses                       3                       # ITB accesses
system.cpu.itb.read_hits                            0                       # DTB read hits
system.cpu.itb.read_misses                          0                       # DTB read misses
system.cpu.itb.read_acv                             0                       # DTB read access violations
system.cpu.itb.read_accesses                        0                       # DTB read accesses
system.cpu.itb.write_hits                           0                       # DTB write hits
system.cpu.itb.write_misses                         0                       # DTB write misses
system.cpu.itb.write_acv                            0                       # DTB write access violations
system.cpu.itb.write_accesses                       0                       # DTB write accesses
system.cpu.itb.data_hits                            0                       # DTB hits
system.cpu.itb.data_misses                          0                       # DTB misses
system.cpu.itb.data_acv                             0                       # DTB access violations
system.cpu.itb.data_accesses                        0                       # DTB accesses
system.cpu.workload.num_syscalls                    5                       # Number of system calls
system.cpu.pwrStateResidencyTicks::ON    3927598031439                       # Cumulative time (in ticks) in various power states
system.cpu.numCycles                              492                       # number of cpu cycles simulated
system.cpu.numWorkItemsStarted                      0                       # number of work items this cpu started
system.cpu.numWorkItemsCompleted                    0                       # number of work items this cpu completed
[...]
system.switch_cpus_1.iq.int_inst_queue_wakeup_accesses    196847058                       # Number of integer instruction queue wakeup accesses
system.switch_cpus_1.iq.fp_inst_queue_reads    132565549                       # Number of floating instruction queue reads
system.switch_cpus_1.iq.fp_inst_queue_writes     84997527                       # Number of floating instruction queue writes
system.switch_cpus_1.iq.fp_inst_queue_wakeup_accesses     59231836                       # Number of floating instruction queue wakeup accesses
system.switch_cpus_1.iq.int_alu_accesses    212898715                       # Number of integer alu accesses
system.switch_cpus_1.iq.fp_alu_accesses      67875546                       # Number of floating point alu accesses
system.switch_cpus_1.iew.lsq.thread0.forwLoads      2275431                       # Number of loads that had data forwarded from stores
system.switch_cpus_1.iew.lsq.thread0.invAddrLoads            0                       # Number of loads ignored due to an invalid address
system.switch_cpus_1.iew.lsq.thread0.squashedLoads     21592204                       # Number of loads squashed
system.switch_cpus_1.iew.lsq.thread0.ignoredResponses        14602                       # Number of memory responses ignored because the instruction is squashed
system.switch_cpus_1.iew.lsq.thread0.memOrderViolation         8642                       # Number of memory ordering violations
system.switch_cpus_1.iew.lsq.thread0.squashedStores      7155836                       # Number of stores squashed
system.switch_cpus_1.iew.lsq.thread0.invAddrSwpfs            0                       # Number of software prefetches ignored due to an invalid address
system.switch_cpus_1.iew.lsq.thread0.blockedLoads            0                       # Number of blocked loads due to partial load-store forwarding
system.switch_cpus_1.iew.lsq.thread0.rescheduledLoads         5990                       # Number of loads that were rescheduled
system.switch_cpus_1.iew.lsq.thread0.cacheBlocked     12632722                       # Number of times an access to memory failed due to the cache being blocked
system.switch_cpus_1.iew.iewIdleCycles              0                       # Number of cycles IEW is idle
system.switch_cpus_1.iew.iewSquashCycles      1484141                       # Number of cycles IEW is squashing
system.switch_cpus_1.iew.iewBlockCycles     208396553                       # Number of cycles IEW is blocking
system.switch_cpus_1.iew.iewUnblockCycles     83700922                       # Number of cycles IEW is unblocking
system.switch_cpus_1.iew.iewDispatchedInsts    292692286                       # Number of instructions dispatched to IQ
system.switch_cpus_1.iew.iewDispSquashedInsts       153149                       # Number of squashed instructions skipped by dispatch
system.switch_cpus_1.iew.iewDispLoadInsts     61263935                       # Number of dispatched load instructions
system.switch_cpus_1.iew.iewDispStoreInsts     19146879                       # Number of dispatched store instructions
system.switch_cpus_1.iew.iewDispNonSpecInsts          200                       # Number of dispatched non-speculative instructions
system.switch_cpus_1.iew.iewIQFullEvents      1029914                       # Number of times the IQ has become full, causing a stall
system.switch_cpus_1.iew.iewLSQFullEvents     82080224                       # Number of times the LSQ has become full, causing a stall
system.switch_cpus_1.iew.memOrderViolationEvents         8642                       # Number of memory order violations
system.switch_cpus_1.iew.predictedTakenIncorrect       815905                       # Number of branches that were predicted taken incorrectly
system.switch_cpus_1.iew.predictedNotTakenIncorrect       565831                       # Number of branches that were predicted not taken incorrectly
system.switch_cpus_1.iew.branchMispredicts      1381736                       # Number of branch mispredicts detected at execute
system.switch_cpus_1.iew.iewExecutedInsts    272045196                       # Number of executed instructions
system.switch_cpus_1.iew.iewExecLoadInsts     68127000                       # Number of load instructions executed
system.switch_cpus_1.iew.iewExecSquashedInsts      1785954                       # Number of squashed instructions skipped in execute
system.switch_cpus_1.iew.exec_swp                   0                       # number of swp insts executed
system.switch_cpus_1.iew.exec_nop             1880137                       # number of nop insts executed
system.switch_cpus_1.iew.exec_refs           83844148                       # number of memory reference insts executed
system.switch_cpus_1.iew.exec_branches       34687616                       # Number of branches executed
system.switch_cpus_1.iew.exec_stores         15717148                       # Number of stores executed
system.switch_cpus_1.iew.exec_rate           0.337755                       # Inst execution rate
system.switch_cpus_1.iew.wb_sent            258053693                       # cumulative count of insts sent to commit
system.switch_cpus_1.iew.wb_count           256078894                       # cumulative count of insts written-back
system.switch_cpus_1.iew.wb_producers       153634936                       # num instructions producing a value
system.switch_cpus_1.iew.wb_consumers       189551649                       # num instructions consuming a value
system.switch_cpus_1.iew.wb_rate             0.317932                       # insts written-back per cycle
system.switch_cpus_1.iew.wb_fanout           0.810518                       # average fanout of values written-back
system.switch_cpus_1.commit.commitSquashedInsts     87388118                       # The number of squashed insts skipped by commit
system.switch_cpus_1.commit.commitNonSpecStalls          204                       # The number of times commit has been forced to stall to communicate backwards
system.switch_cpus_1.commit.branchMispredicts      1111249                       # The number of times a branch was mispredicted
system.switch_cpus_1.commit.committed_per_cycle::samples    792946054                       # Number of insts commited each cycle
system.switch_cpus_1.commit.committed_per_cycle::mean     0.253760                       # Number of insts commited each cycle
system.switch_cpus_1.commit.committed_per_cycle::stdev     1.305367                       # Number of insts commited each cycle
system.switch_cpus_1.commit.committed_per_cycle::underflows            0      0.00%      0.00% # Number of insts commited each cycle
system.switch_cpus_1.commit.committed_per_cycle::0    753716534     95.05%     95.05% # Number of insts commited each cycle
system.switch_cpus_1.commit.committed_per_cycle::1      9357787      1.18%     96.23% # Number of insts commited each cycle
system.switch_cpus_1.commit.committed_per_cycle::2      4032017      0.51%     96.74% # Number of insts commited each cycle
system.switch_cpus_1.commit.committed_per_cycle::3      1889468      0.24%     96.98% # Number of insts commited each cycle
system.switch_cpus_1.commit.committed_per_cycle::4      1337829      0.17%     97.15% # Number of insts commited each cycle
system.switch_cpus_1.commit.committed_per_cycle::5      1916425      0.24%     97.39% # Number of insts commited each cycle
system.switch_cpus_1.commit.committed_per_cycle::6       738575      0.09%     97.48% # Number of insts commited each cycle
system.switch_cpus_1.commit.committed_per_cycle::7       896120      0.11%     97.60% # Number of insts commited each cycle
system.switch_cpus_1.commit.committed_per_cycle::8     19061299      2.40%    100.00% # Number of insts commited each cycle
system.switch_cpus_1.commit.committed_per_cycle::overflows            0      0.00%    100.00% # Number of insts commited each cycle
system.switch_cpus_1.commit.committed_per_cycle::min_value            0                       # Number of insts commited each cycle
system.switch_cpus_1.commit.committed_per_cycle::max_value            8                       # Number of insts commited each cycle
system.switch_cpus_1.commit.committed_per_cycle::total    792946054                       # Number of insts commited each cycle
system.switch_cpus_1.commit.committedInsts    201218348                       # Number of instructions committed
system.switch_cpus_1.commit.committedOps    201218348                       # Number of ops (including micro ops) committed
system.switch_cpus_1.commit.swp_count               0                       # Number of s/w prefetches committed
system.switch_cpus_1.commit.refs             51662749                       # Number of memory references committed
system.switch_cpus_1.commit.loads            39671713                       # Number of loads committed
system.switch_cpus_1.commit.membars               102                       # Number of memory barriers committed
system.switch_cpus_1.commit.branches         28384894                       # Number of branches committed
system.switch_cpus_1.commit.fp_insts         51627815                       # Number of committed floating point instructions.
system.switch_cpus_1.commit.int_insts       168624392                       # Number of committed integer instructions.
system.switch_cpus_1.commit.function_calls       460018                       # Number of function calls committed.
system.switch_cpus_1.commit.op_class_0::No_OpClass      1218344      0.61%      0.61% # Class of committed instruction
system.switch_cpus_1.commit.op_class_0::IntAlu    117264313     58.28%     58.88% # Class of committed instruction
system.switch_cpus_1.commit.op_class_0::IntMult       166526      0.08%     58.97% # Class of committed instruction
system.switch_cpus_1.commit.op_class_0::IntDiv            0      0.00%     58.97% # Class of committed instruction
system.switch_cpus_1.commit.op_class_0::FloatAdd     18908760      9.40%     68.36% # Class of committed instruction
system.switch_cpus_1.commit.op_class_0::FloatCmp     10580725      5.26%     73.62% # Class of committed instruction
system.switch_cpus_1.commit.op_class_0::FloatCvt         1376      0.00%     73.62% # Class of committed instruction
system.switch_cpus_1.commit.op_class_0::FloatMult       880508      0.44%     74.06% # Class of committed instruction
system.switch_cpus_1.commit.op_class_0::FloatMultAcc            0      0.00%     74.06% # Class of committed instruction
system.switch_cpus_1.commit.op_class_0::FloatDiv       534945      0.27%     74.32% # Class of committed instruction
system.switch_cpus_1.commit.op_class_0::FloatMisc            0      0.00%     74.32% # Class of committed instruction
system.switch_cpus_1.commit.op_class_0::FloatSqrt            0      0.00%     74.32% # Class of committed instruction
system.switch_cpus_1.commit.op_class_0::SimdAdd            0      0.00%     74.32% # Class of committed instruction
system.switch_cpus_1.commit.op_class_0::SimdAddAcc            0      0.00%     74.32% # Class of committed instruction
system.switch_cpus_1.commit.op_class_0::SimdAlu            0      0.00%     74.32% # Class of committed instruction
system.switch_cpus_1.commit.op_class_0::SimdCmp            0      0.00%     74.32% # Class of committed instruction
system.switch_cpus_1.commit.op_class_0::SimdCvt            0      0.00%     74.32% # Class of committed instruction
system.switch_cpus_1.commit.op_class_0::SimdMisc            0      0.00%     74.32% # Class of committed instruction
system.switch_cpus_1.commit.op_class_0::SimdMult            0      0.00%     74.32% # Class of committed instruction
system.switch_cpus_1.commit.op_class_0::SimdMultAcc            0      0.00%     74.32% # Class of committed instruction
system.switch_cpus_1.commit.op_class_0::SimdShift            0      0.00%     74.32% # Class of committed instruction
system.switch_cpus_1.commit.op_class_0::SimdShiftAcc            0      0.00%     74.32% # Class of committed instruction
system.switch_cpus_1.commit.op_class_0::SimdSqrt            0      0.00%     74.32% # Class of committed instruction
system.switch_cpus_1.commit.op_class_0::SimdFloatAdd            0      0.00%     74.32% # Class of committed instruction
system.switch_cpus_1.commit.op_class_0::SimdFloatAlu            0      0.00%     74.32% # Class of committed instruction
system.switch_cpus_1.commit.op_class_0::SimdFloatCmp            0      0.00%     74.32% # Class of committed instruction
system.switch_cpus_1.commit.op_class_0::SimdFloatCvt            0      0.00%     74.32% # Class of committed instruction
system.switch_cpus_1.commit.op_class_0::SimdFloatDiv            0      0.00%     74.32% # Class of committed instruction
system.switch_cpus_1.commit.op_class_0::SimdFloatMisc            0      0.00%     74.32% # Class of committed instruction
system.switch_cpus_1.commit.op_class_0::SimdFloatMult            0      0.00%     74.32% # Class of committed instruction
system.switch_cpus_1.commit.op_class_0::SimdFloatMultAcc            0      0.00%     74.32% # Class of committed instruction
system.switch_cpus_1.commit.op_class_0::SimdFloatSqrt            0      0.00%     74.32% # Class of committed instruction
system.switch_cpus_1.commit.op_class_0::MemRead     20146501     10.01%     84.34% # Class of committed instruction
system.switch_cpus_1.commit.op_class_0::MemWrite     10794849      5.36%     89.70% # Class of committed instruction
system.switch_cpus_1.commit.op_class_0::FloatMemRead     19525314      9.70%     99.41% # Class of committed instruction
system.switch_cpus_1.commit.op_class_0::FloatMemWrite      1196187      0.59%    100.00% # Class of committed instruction
system.switch_cpus_1.commit.op_class_0::IprAccess            0      0.00%    100.00% # Class of committed instruction
system.switch_cpus_1.commit.op_class_0::InstPrefetch            0      0.00%    100.00% # Class of committed instruction
system.switch_cpus_1.commit.op_class_0::total    201218348                       # Class of committed instruction
system.switch_cpus_1.commit.bw_lim_events     19061299                       # number cycles where commit BW limit reached
system.switch_cpus_1.rob.rob_reads         1057726162                       # The number of ROB reads
system.switch_cpus_1.rob.rob_writes         589271205                       # The number of ROB writes
system.switch_cpus_1.timesIdled                  2441                       # Number of times that the entire CPU went into an idle state and unscheduled itself
system.switch_cpus_1.idleCycles                469926                       # Total number of cycles that the CPU has spent unscheduled due to idling
system.switch_cpus_1.committedInsts         200000004                       # Number of Instructions Simulated
system.switch_cpus_1.committedOps           200000004                       # Number of Ops (including micro ops) Simulated
system.switch_cpus_1.cpi                     4.027260                       # CPI: Cycles Per Instruction
system.switch_cpus_1.cpi_total               4.027260                       # CPI: Total CPI of All Threads
system.switch_cpus_1.ipc                     0.248308                       # IPC: Instructions Per Cycle
system.switch_cpus_1.ipc_total               0.248308                       # IPC: Total IPC of All Threads
system.switch_cpus_1.int_regfile_reads      354642279                       # number of integer regfile reads
system.switch_cpus_1.int_regfile_writes     160657425                       # number of integer regfile writes
system.switch_cpus_1.fp_regfile_reads        59408700                       # number of floating regfile reads
system.switch_cpus_1.fp_regfile_writes       46461437                       # number of floating regfile writes
system.switch_cpus_1.misc_regfile_reads           243                       # number of misc regfile reads
system.switch_cpus_1.misc_regfile_writes          204                       # number of misc regfile writes
system.tol3bus.snoop_filter.tot_requests     51972790                       # Total number of requests made to the snoop filter.
system.tol3bus.snoop_filter.hit_single_requests     25984173                       # Number of requests hitting in the snoop filter with a single holder of the requested data.
system.tol3bus.snoop_filter.hit_multi_requests            0                       # Number of requests hitting in the snoop filter with multiple (>1) holders of the requested data.
system.tol3bus.snoop_filter.tot_snoops           6141                       # Total number of snoops made to the snoop filter.
system.tol3bus.snoop_filter.hit_single_snoops         6141                       # Number of snoops hitting in the snoop filter with a single holder of the requested data.
system.tol3bus.snoop_filter.hit_multi_snoops            0                       # Number of snoops hitting in the snoop filter with multiple (>1) holders of the requested data.
system.tol3bus.pwrStateResidencyTicks::UNDEFINED 73957570612785                       # Cumulative time (in ticks) in various power states
system.tol3bus.trans_dist::ReadResp          19568839                       # Transaction distribution
system.tol3bus.trans_dist::WritebackDirty     17695301                       # Transaction distribution
system.tol3bus.trans_dist::CleanEvict        25459797                       # Transaction distribution
system.tol3bus.trans_dist::UpgradeReq              26                       # Transaction distribution
system.tol3bus.trans_dist::UpgradeResp             26                       # Transaction distribution
system.tol3bus.trans_dist::ReadExReq          6419778                       # Transaction distribution
system.tol3bus.trans_dist::ReadExResp         6419778                       # Transaction distribution
system.tol3bus.trans_dist::ReadSharedReq     19568839                       # Transaction distribution
system.tol3bus.pkt_count_system.cpu.l2.mem_side::system.l3.cpu_side     77961433                       # Packet count per connected master and slave (bytes)
system.tol3bus.pkt_size_system.cpu.l2.mem_side::system.l3.cpu_side   2464666816                       # Cumulative packet size per connected master and slave (bytes)
system.tol3bus.snoops                        17170951                       # Total snoops (count)
system.tol3bus.snoopTraffic                 331103936                       # Total snoop traffic (bytes)
system.tol3bus.snoop_fanout::samples         43159594                       # Request fanout histogram
system.tol3bus.snoop_fanout::mean            0.000142                       # Request fanout histogram
system.tol3bus.snoop_fanout::stdev           0.011928                       # Request fanout histogram
system.tol3bus.snoop_fanout::underflows             0      0.00%      0.00% # Request fanout histogram
system.tol3bus.snoop_fanout::0               43153453     99.99%     99.99% # Request fanout histogram
system.tol3bus.snoop_fanout::1                   6141      0.01%    100.00% # Request fanout histogram
system.tol3bus.snoop_fanout::overflows              0      0.00%    100.00% # Request fanout histogram
system.tol3bus.snoop_fanout::min_value              0                       # Request fanout histogram
system.tol3bus.snoop_fanout::max_value              1                       # Request fanout histogram
system.tol3bus.snoop_fanout::total           43159594                       # Request fanout histogram
system.tol3bus.reqLayer0.occupancy        21476699136                       # Layer occupancy (ticks)
system.tol3bus.reqLayer0.utilization              0.5                       # Layer utilization (%)
system.tol3bus.respLayer0.occupancy       17308427580                       # Layer occupancy (ticks)
system.tol3bus.respLayer0.utilization             0.4                       # Layer utilization (%)

---------- End Simulation Statistics   ----------
