
---------- Begin Simulation Statistics ----------
sim_seconds                                  2.495596                       # Number of seconds simulated
sim_ticks                                2495595716190                       # Number of ticks simulated
final_tick                               129448592240922                       # Number of ticks from beginning of simulation (restored from checkpoints and never reset)
sim_freq                                 1000000000000                       # Frequency of simulated ticks
host_inst_rate                                 193568                       # Simulator instruction rate (inst/s)
host_op_rate                                   193568                       # Simulator op (including micro ops) rate (op/s)
host_tick_rate                              402555674                       # Simulator tick rate (ticks/s)
host_mem_usage                                2435792                       # Number of bytes of host memory used
host_seconds                                  6199.38                       # Real time elapsed on the host
sim_insts                                  1200000003                       # Number of instructions simulated
sim_ops                                    1200000003                       # Number of ops (including micro ops) simulated
system.voltage_domain.voltage                       1                       # Voltage in Volts
system.clk_domain.clock                          1000                       # Clock period in ticks
system.mem_ctrls0.pwrStateResidencyTicks::UNDEFINED 129448592240922                       # Cumulative time (in ticks) in various power states
system.mem_ctrls0.bytes_read::cpu.inst            128                       # Number of bytes read from this memory
system.mem_ctrls0.bytes_read::switch_cpus.inst       122176                       # Number of bytes read from this memory
system.mem_ctrls0.bytes_read::switch_cpus.data    386056448                       # Number of bytes read from this memory
system.mem_ctrls0.bytes_read::switch_cpus_1.inst        42240                       # Number of bytes read from this memory
system.mem_ctrls0.bytes_read::switch_cpus_1.data     87484288                       # Number of bytes read from this memory
system.mem_ctrls0.bytes_read::total         473705280                       # Number of bytes read from this memory
system.mem_ctrls0.bytes_inst_read::cpu.inst          128                       # Number of instructions bytes read from this memory
system.mem_ctrls0.bytes_inst_read::switch_cpus.inst       122176                       # Number of instructions bytes read from this memory
system.mem_ctrls0.bytes_inst_read::switch_cpus_1.inst        42240                       # Number of instructions bytes read from this memory
system.mem_ctrls0.bytes_inst_read::total       164544                       # Number of instructions bytes read from this memory
system.mem_ctrls0.bytes_written::writebacks    199018816                       # Number of bytes written to this memory
system.mem_ctrls0.bytes_written::total      199018816                       # Number of bytes written to this memory
system.mem_ctrls0.num_reads::cpu.inst               2                       # Number of read requests responded to by this memory
system.mem_ctrls0.num_reads::switch_cpus.inst         1909                       # Number of read requests responded to by this memory
system.mem_ctrls0.num_reads::switch_cpus.data      6032132                       # Number of read requests responded to by this memory
system.mem_ctrls0.num_reads::switch_cpus_1.inst          660                       # Number of read requests responded to by this memory
system.mem_ctrls0.num_reads::switch_cpus_1.data      1366942                       # Number of read requests responded to by this memory
system.mem_ctrls0.num_reads::total            7401645                       # Number of read requests responded to by this memory
system.mem_ctrls0.num_writes::writebacks      3109669                       # Number of write requests responded to by this memory
system.mem_ctrls0.num_writes::total           3109669                       # Number of write requests responded to by this memory
system.mem_ctrls0.bw_read::cpu.inst                51                       # Total read bandwidth from this memory (bytes/s)
system.mem_ctrls0.bw_read::switch_cpus.inst        48957                       # Total read bandwidth from this memory (bytes/s)
system.mem_ctrls0.bw_read::switch_cpus.data    154695108                       # Total read bandwidth from this memory (bytes/s)
system.mem_ctrls0.bw_read::switch_cpus_1.inst        16926                       # Total read bandwidth from this memory (bytes/s)
system.mem_ctrls0.bw_read::switch_cpus_1.data     35055473                       # Total read bandwidth from this memory (bytes/s)
system.mem_ctrls0.bw_read::total            189816514                       # Total read bandwidth from this memory (bytes/s)
system.mem_ctrls0.bw_inst_read::cpu.inst           51                       # Instruction read bandwidth from this memory (bytes/s)
system.mem_ctrls0.bw_inst_read::switch_cpus.inst        48957                       # Instruction read bandwidth from this memory (bytes/s)
system.mem_ctrls0.bw_inst_read::switch_cpus_1.inst        16926                       # Instruction read bandwidth from this memory (bytes/s)
system.mem_ctrls0.bw_inst_read::total           65934                       # Instruction read bandwidth from this memory (bytes/s)
system.mem_ctrls0.bw_write::writebacks       79748020                       # Write bandwidth from this memory (bytes/s)
system.mem_ctrls0.bw_write::total            79748020                       # Write bandwidth from this memory (bytes/s)
system.mem_ctrls0.bw_total::writebacks       79748020                       # Total bandwidth to/from this memory (bytes/s)
system.mem_ctrls0.bw_total::cpu.inst               51                       # Total bandwidth to/from this memory (bytes/s)
system.mem_ctrls0.bw_total::switch_cpus.inst        48957                       # Total bandwidth to/from this memory (bytes/s)
system.mem_ctrls0.bw_total::switch_cpus.data    154695108                       # Total bandwidth to/from this memory (bytes/s)
system.mem_ctrls0.bw_total::switch_cpus_1.inst        16926                       # Total bandwidth to/from this memory (bytes/s)
system.mem_ctrls0.bw_total::switch_cpus_1.data     35055473                       # Total bandwidth to/from this memory (bytes/s)
system.mem_ctrls0.bw_total::total           269564534                       # Total bandwidth to/from this memory (bytes/s)
system.mem_ctrls0.readReqs                    7401645                       # Number of read requests accepted
system.mem_ctrls0.writeReqs                   3109669                       # Number of write requests accepted
system.mem_ctrls0.readBursts                  7401645                       # Number of DRAM read bursts, including those serviced by the write queue
system.mem_ctrls0.writeBursts                 3109669                       # Number of DRAM write bursts, including those merged in the write queue
system.mem_ctrls0.bytesReadDRAM             473425728                       # Total number of bytes read from DRAM
system.mem_ctrls0.bytesReadWrQ                 279552                       # Total number of bytes read from write queue
system.mem_ctrls0.bytesWritten              199016832                       # Total number of bytes written to DRAM
system.mem_ctrls0.bytesReadSys              473705280                       # Total read bytes from the system interface side
system.mem_ctrls0.bytesWrittenSys           199018816                       # Total written bytes from the system interface side
system.mem_ctrls0.servicedByWrQ                  4368                       # Number of DRAM read bursts serviced by the write queue
system.mem_ctrls0.mergedWrBursts                    0                       # Number of DRAM write bursts merged with an existing one
system.mem_ctrls0.neitherReadNorWriteReqs            0                       # Number of requests that are neither read nor write
system.mem_ctrls0.perBankRdBursts::0           456161                       # Per bank write bursts
system.mem_ctrls0.perBankRdBursts::1           469497                       # Per bank write bursts
system.mem_ctrls0.perBankRdBursts::2           465790                       # Per bank write bursts
system.mem_ctrls0.perBankRdBursts::3           448643                       # Per bank write bursts
system.mem_ctrls0.perBankRdBursts::4           447754                       # Per bank write bursts
system.mem_ctrls0.perBankRdBursts::5           468539                       # Per bank write bursts
system.mem_ctrls0.perBankRdBursts::6           478171                       # Per bank write bursts
system.mem_ctrls0.perBankRdBursts::7           476920                       # Per bank write bursts
system.mem_ctrls0.perBankRdBursts::8           485729                       # Per bank write bursts
system.mem_ctrls0.perBankRdBursts::9           465295                       # Per bank write bursts
system.mem_ctrls0.perBankRdBursts::10          450226                       # Per bank write bursts
system.mem_ctrls0.perBankRdBursts::11          448377                       # Per bank write bursts
system.mem_ctrls0.perBankRdBursts::12          445065                       # Per bank write bursts
system.mem_ctrls0.perBankRdBursts::13          465186                       # Per bank write bursts
system.mem_ctrls0.perBankRdBursts::14          466270                       # Per bank write bursts
system.mem_ctrls0.perBankRdBursts::15          459654                       # Per bank write bursts
system.mem_ctrls0.perBankWrBursts::0           192846                       # Per bank write bursts
system.mem_ctrls0.perBankWrBursts::1           194145                       # Per bank write bursts
system.mem_ctrls0.perBankWrBursts::2           196189                       # Per bank write bursts
system.mem_ctrls0.perBankWrBursts::3           184733                       # Per bank write bursts
system.mem_ctrls0.perBankWrBursts::4           187254                       # Per bank write bursts
system.mem_ctrls0.perBankWrBursts::5           196896                       # Per bank write bursts
system.mem_ctrls0.perBankWrBursts::6           204819                       # Per bank write bursts
system.mem_ctrls0.perBankWrBursts::7           203541                       # Per bank write bursts
system.mem_ctrls0.perBankWrBursts::8           204685                       # Per bank write bursts
system.mem_ctrls0.perBankWrBursts::9           193075                       # Per bank write bursts
system.mem_ctrls0.perBankWrBursts::10          191553                       # Per bank write bursts
system.mem_ctrls0.perBankWrBursts::11          192667                       # Per bank write bursts
system.mem_ctrls0.perBankWrBursts::12          184690                       # Per bank write bursts
system.mem_ctrls0.perBankWrBursts::13          193367                       # Per bank write bursts
system.mem_ctrls0.perBankWrBursts::14          197913                       # Per bank write bursts
system.mem_ctrls0.perBankWrBursts::15          191265                       # Per bank write bursts
system.mem_ctrls0.numRdRetry                        0                       # Number of times read queue was full causing retry
system.mem_ctrls0.numWrRetry                        0                       # Number of times write queue was full causing retry
system.mem_ctrls0.totGap                 2495595603636                       # Total gap between requests
system.mem_ctrls0.readPktSize::0                    0                       # Read request sizes (log2)
system.mem_ctrls0.readPktSize::1                    0                       # Read request sizes (log2)
system.mem_ctrls0.readPktSize::2                    0                       # Read request sizes (log2)
system.mem_ctrls0.readPktSize::3                    0                       # Read request sizes (log2)
system.mem_ctrls0.readPktSize::4                    0                       # Read request sizes (log2)
system.mem_ctrls0.readPktSize::5                    0                       # Read request sizes (log2)
system.mem_ctrls0.readPktSize::6              7401645                       # Read request sizes (log2)
system.mem_ctrls0.writePktSize::0                   0                       # Write request sizes (log2)
system.mem_ctrls0.writePktSize::1                   0                       # Write request sizes (log2)
system.mem_ctrls0.writePktSize::2                   0                       # Write request sizes (log2)
system.mem_ctrls0.writePktSize::3                   0                       # Write request sizes (log2)
system.mem_ctrls0.writePktSize::4                   0                       # Write request sizes (log2)
system.mem_ctrls0.writePktSize::5                   0                       # Write request sizes (log2)
system.mem_ctrls0.writePktSize::6             3109669                       # Write request sizes (log2)
system.mem_ctrls0.rdQLenPdf::0                7100844                       # What read queue length does an incoming req see
system.mem_ctrls0.rdQLenPdf::1                 262018                       # What read queue length does an incoming req see
system.mem_ctrls0.rdQLenPdf::2                  32320                       # What read queue length does an incoming req see
system.mem_ctrls0.rdQLenPdf::3                   2094                       # What read queue length does an incoming req see
system.mem_ctrls0.rdQLenPdf::4                      1                       # What read queue length does an incoming req see
system.mem_ctrls0.rdQLenPdf::5                      0                       # What read queue length does an incoming req see
system.mem_ctrls0.rdQLenPdf::6                      0                       # What read queue length does an incoming req see
system.mem_ctrls0.rdQLenPdf::7                      0                       # What read queue length does an incoming req see
system.mem_ctrls0.rdQLenPdf::8                      0                       # What read queue length does an incoming req see
system.mem_ctrls0.rdQLenPdf::9                      0                       # What read queue length does an incoming req see
system.mem_ctrls0.rdQLenPdf::10                     0                       # What read queue length does an incoming req see
system.mem_ctrls0.rdQLenPdf::11                     0                       # What read queue length does an incoming req see
system.mem_ctrls0.rdQLenPdf::12                     0                       # What read queue length does an incoming req see
system.mem_ctrls0.rdQLenPdf::13                     0                       # What read queue length does an incoming req see
system.mem_ctrls0.rdQLenPdf::14                     0                       # What read queue length does an incoming req see
system.mem_ctrls0.rdQLenPdf::15                     0                       # What read queue length does an incoming req see
system.mem_ctrls0.rdQLenPdf::16                     0                       # What read queue length does an incoming req see
system.mem_ctrls0.rdQLenPdf::17                     0                       # What read queue length does an incoming req see
system.mem_ctrls0.rdQLenPdf::18                     0                       # What read queue length does an incoming req see
system.mem_ctrls0.rdQLenPdf::19                     0                       # What read queue length does an incoming req see
system.mem_ctrls0.rdQLenPdf::20                     0                       # What read queue length does an incoming req see
system.mem_ctrls0.rdQLenPdf::21                     0                       # What read queue length does an incoming req see
system.mem_ctrls0.rdQLenPdf::22                     0                       # What read queue length does an incoming req see
system.mem_ctrls0.rdQLenPdf::23                     0                       # What read queue length does an incoming req see
system.mem_ctrls0.rdQLenPdf::24                     0                       # What read queue length does an incoming req see
system.mem_ctrls0.rdQLenPdf::25                     0                       # What read queue length does an incoming req see
system.mem_ctrls0.rdQLenPdf::26                     0                       # What read queue length does an incoming req see
system.mem_ctrls0.rdQLenPdf::27                     0                       # What read queue length does an incoming req see
system.mem_ctrls0.rdQLenPdf::28                     0                       # What read queue length does an incoming req see
system.mem_ctrls0.rdQLenPdf::29                     0                       # What read queue length does an incoming req see
system.mem_ctrls0.rdQLenPdf::30                     0                       # What read queue length does an incoming req see
system.mem_ctrls0.rdQLenPdf::31                     0                       # What read queue length does an incoming req see
system.mem_ctrls0.wrQLenPdf::0                      2                       # What write queue length does an incoming req see
system.mem_ctrls0.wrQLenPdf::1                      2                       # What write queue length does an incoming req see
system.mem_ctrls0.wrQLenPdf::2                      2                       # What write queue length does an incoming req see
system.mem_ctrls0.wrQLenPdf::3                      2                       # What write queue length does an incoming req see
system.mem_ctrls0.wrQLenPdf::4                      2                       # What write queue length does an incoming req see
system.mem_ctrls0.wrQLenPdf::5                      2                       # What write queue length does an incoming req see
system.mem_ctrls0.wrQLenPdf::6                      2                       # What write queue length does an incoming req see
system.mem_ctrls0.wrQLenPdf::7                      2                       # What write queue length does an incoming req see
system.mem_ctrls0.wrQLenPdf::8                      2                       # What write queue length does an incoming req see
system.mem_ctrls0.wrQLenPdf::9                      2                       # What write queue length does an incoming req see
system.mem_ctrls0.wrQLenPdf::10                     2                       # What write queue length does an incoming req see
system.mem_ctrls0.wrQLenPdf::11                     2                       # What write queue length does an incoming req see
system.mem_ctrls0.wrQLenPdf::12                     2                       # What write queue length does an incoming req see
system.mem_ctrls0.wrQLenPdf::13                     2                       # What write queue length does an incoming req see
system.mem_ctrls0.wrQLenPdf::14                     2                       # What write queue length does an incoming req see
system.mem_ctrls0.wrQLenPdf::15                106003                       # What write queue length does an incoming req see
system.mem_ctrls0.wrQLenPdf::16                109914                       # What write queue length does an incoming req see
system.mem_ctrls0.wrQLenPdf::17                176902                       # What write queue length does an incoming req see
system.mem_ctrls0.wrQLenPdf::18                180906                       # What write queue length does an incoming req see
system.mem_ctrls0.wrQLenPdf::19                181015                       # What write queue length does an incoming req see
system.mem_ctrls0.wrQLenPdf::20                180961                       # What write queue length does an incoming req see
system.mem_ctrls0.wrQLenPdf::21                180933                       # What write queue length does an incoming req see
system.mem_ctrls0.wrQLenPdf::22                180871                       # What write queue length does an incoming req see
system.mem_ctrls0.wrQLenPdf::23                180816                       # What write queue length does an incoming req see
system.mem_ctrls0.wrQLenPdf::24                180774                       # What write queue length does an incoming req see
system.mem_ctrls0.wrQLenPdf::25                180775                       # What write queue length does an incoming req see
system.mem_ctrls0.wrQLenPdf::26                180736                       # What write queue length does an incoming req see
system.mem_ctrls0.wrQLenPdf::27                180983                       # What write queue length does an incoming req see
system.mem_ctrls0.wrQLenPdf::28                181114                       # What write queue length does an incoming req see
system.mem_ctrls0.wrQLenPdf::29                183563                       # What write queue length does an incoming req see
system.mem_ctrls0.wrQLenPdf::30                182384                       # What write queue length does an incoming req see
system.mem_ctrls0.wrQLenPdf::31                180486                       # What write queue length does an incoming req see
system.mem_ctrls0.wrQLenPdf::32                180450                       # What write queue length does an incoming req see
system.mem_ctrls0.wrQLenPdf::33                    47                       # What write queue length does an incoming req see
system.mem_ctrls0.wrQLenPdf::34                     6                       # What write queue length does an incoming req see
system.mem_ctrls0.wrQLenPdf::35                     0                       # What write queue length does an incoming req see
system.mem_ctrls0.wrQLenPdf::36                     0                       # What write queue length does an incoming req see
system.mem_ctrls0.wrQLenPdf::37                     0                       # What write queue length does an incoming req see
system.mem_ctrls0.wrQLenPdf::38                     0                       # What write queue length does an incoming req see
system.mem_ctrls0.wrQLenPdf::39                     0                       # What write queue length does an incoming req see
system.mem_ctrls0.wrQLenPdf::40                     0                       # What write queue length does an incoming req see
system.mem_ctrls0.wrQLenPdf::41                     0                       # What write queue length does an incoming req see
system.mem_ctrls0.wrQLenPdf::42                     0                       # What write queue length does an incoming req see
system.mem_ctrls0.wrQLenPdf::43                     0                       # What write queue length does an incoming req see
system.mem_ctrls0.wrQLenPdf::44                     0                       # What write queue length does an incoming req see
system.mem_ctrls0.wrQLenPdf::45                     0                       # What write queue length does an incoming req see
system.mem_ctrls0.wrQLenPdf::46                     0                       # What write queue length does an incoming req see
system.mem_ctrls0.wrQLenPdf::47                     0                       # What write queue length does an incoming req see
system.mem_ctrls0.wrQLenPdf::48                     0                       # What write queue length does an incoming req see
system.mem_ctrls0.wrQLenPdf::49                     0                       # What write queue length does an incoming req see
system.mem_ctrls0.wrQLenPdf::50                     0                       # What write queue length does an incoming req see
system.mem_ctrls0.wrQLenPdf::51                     0                       # What write queue length does an incoming req see
system.mem_ctrls0.wrQLenPdf::52                     0                       # What write queue length does an incoming req see
system.mem_ctrls0.wrQLenPdf::53                     0                       # What write queue length does an incoming req see
system.mem_ctrls0.wrQLenPdf::54                     0                       # What write queue length does an incoming req see
system.mem_ctrls0.wrQLenPdf::55                     0                       # What write queue length does an incoming req see
system.mem_ctrls0.wrQLenPdf::56                     0                       # What write queue length does an incoming req see
system.mem_ctrls0.wrQLenPdf::57                     0                       # What write queue length does an incoming req see
system.mem_ctrls0.wrQLenPdf::58                     0                       # What write queue length does an incoming req see
system.mem_ctrls0.wrQLenPdf::59                     0                       # What write queue length does an incoming req see
system.mem_ctrls0.wrQLenPdf::60                     0                       # What write queue length does an incoming req see
system.mem_ctrls0.wrQLenPdf::61                     0                       # What write queue length does an incoming req see
system.mem_ctrls0.wrQLenPdf::62                     0                       # What write queue length does an incoming req see
system.mem_ctrls0.wrQLenPdf::63                     0                       # What write queue length does an incoming req see
system.mem_ctrls0.bytesPerActivate::samples      6626550                       # Bytes accessed per row activation
system.mem_ctrls0.bytesPerActivate::mean   101.476810                       # Bytes accessed per row activation
system.mem_ctrls0.bytesPerActivate::gmean    83.303203                       # Bytes accessed per row activation
system.mem_ctrls0.bytesPerActivate::stdev    95.708524                       # Bytes accessed per row activation
system.mem_ctrls0.bytesPerActivate::0-127      5029727     75.90%     75.90% # Bytes accessed per row activation
system.mem_ctrls0.bytesPerActivate::128-255      1108482     16.73%     92.63% # Bytes accessed per row activation
system.mem_ctrls0.bytesPerActivate::256-383       269359      4.06%     96.70% # Bytes accessed per row activation
system.mem_ctrls0.bytesPerActivate::384-511       119289      1.80%     98.50% # Bytes accessed per row activation
system.mem_ctrls0.bytesPerActivate::512-639        57851      0.87%     99.37% # Bytes accessed per row activation
system.mem_ctrls0.bytesPerActivate::640-767        22730      0.34%     99.71% # Bytes accessed per row activation
system.mem_ctrls0.bytesPerActivate::768-895         9632      0.15%     99.86% # Bytes accessed per row activation
system.mem_ctrls0.bytesPerActivate::896-1023         5136      0.08%     99.93% # Bytes accessed per row activation
system.mem_ctrls0.bytesPerActivate::1024-1151         4344      0.07%    100.00% # Bytes accessed per row activation
system.mem_ctrls0.bytesPerActivate::total      6626550                       # Bytes accessed per row activation
system.mem_ctrls0.rdPerTurnAround::samples       180434                       # Reads before turning the bus around for writes
system.mem_ctrls0.rdPerTurnAround::mean     40.996869                       # Reads before turning the bus around for writes
system.mem_ctrls0.rdPerTurnAround::gmean    39.299715                       # Reads before turning the bus around for writes
system.mem_ctrls0.rdPerTurnAround::stdev    56.622490                       # Reads before turning the bus around for writes
system.mem_ctrls0.rdPerTurnAround::0-1023       180433    100.00%    100.00% # Reads before turning the bus around for writes
system.mem_ctrls0.rdPerTurnAround::23552-24575            1      0.00%    100.00% # Reads before turning the bus around for writes
system.mem_ctrls0.rdPerTurnAround::total       180434                       # Reads before turning the bus around for writes
system.mem_ctrls0.wrPerTurnAround::samples       180434                       # Writes before turning the bus around for reads
system.mem_ctrls0.wrPerTurnAround::mean     17.234213                       # Writes before turning the bus around for reads
system.mem_ctrls0.wrPerTurnAround::gmean    17.202891                       # Writes before turning the bus around for reads
system.mem_ctrls0.wrPerTurnAround::stdev     1.033853                       # Writes before turning the bus around for reads
system.mem_ctrls0.wrPerTurnAround::16           71876     39.84%     39.84% # Writes before turning the bus around for reads
system.mem_ctrls0.wrPerTurnAround::17            2282      1.26%     41.10% # Writes before turning the bus around for reads
system.mem_ctrls0.wrPerTurnAround::18           98877     54.80%     95.90% # Writes before turning the bus around for reads
system.mem_ctrls0.wrPerTurnAround::19            6970      3.86%     99.76% # Writes before turning the bus around for reads
system.mem_ctrls0.wrPerTurnAround::20             405      0.22%     99.99% # Writes before turning the bus around for reads
system.mem_ctrls0.wrPerTurnAround::21              20      0.01%    100.00% # Writes before turning the bus around for reads
system.mem_ctrls0.wrPerTurnAround::22               3      0.00%    100.00% # Writes before turning the bus around for reads
system.mem_ctrls0.wrPerTurnAround::26               1      0.00%    100.00% # Writes before turning the bus around for reads
system.mem_ctrls0.wrPerTurnAround::total       180434                       # Writes before turning the bus around for reads
system.mem_ctrls0.totQLat                155595101921                       # Total ticks spent queuing
system.mem_ctrls0.totMemAccLat           294294045671                       # Total ticks spent from burst creation until serviced by the DRAM
system.mem_ctrls0.totBusLat               36986385000                       # Total ticks spent in databus transfers
system.mem_ctrls0.avgQLat                    21034.11                       # Average queueing delay per DRAM burst
system.mem_ctrls0.avgBusLat                   5000.00                       # Average bus latency per DRAM burst
system.mem_ctrls0.avgMemAccLat               39784.11                       # Average memory access latency per DRAM burst
system.mem_ctrls0.avgRdBW                      189.70                       # Average DRAM read bandwidth in MiByte/s
system.mem_ctrls0.avgWrBW                       79.75                       # Average achieved write bandwidth in MiByte/s
system.mem_ctrls0.avgRdBWSys                   189.82                       # Average system read bandwidth in MiByte/s
system.mem_ctrls0.avgWrBWSys                    79.75                       # Average system write bandwidth in MiByte/s
system.mem_ctrls0.peakBW                     12800.00                       # Theoretical peak bandwidth in MiByte/s
system.mem_ctrls0.busUtil                        2.11                       # Data bus utilization in percentage
system.mem_ctrls0.busUtilRead                    1.48                       # Data bus utilization in percentage for reads
system.mem_ctrls0.busUtilWrite                   0.62                       # Data bus utilization in percentage for writes
system.mem_ctrls0.avgRdQLen                      1.02                       # Average read queue length when enqueuing
system.mem_ctrls0.avgWrQLen                     24.81                       # Average write queue length when enqueuing
system.mem_ctrls0.readRowHits                 3826502                       # Number of row buffer hits during reads
system.mem_ctrls0.writeRowHits                  53856                       # Number of row buffer hits during writes
system.mem_ctrls0.readRowHitRate                51.73                       # Row buffer hit rate for reads
system.mem_ctrls0.writeRowHitRate                1.73                       # Row buffer hit rate for writes
system.mem_ctrls0.avgGap                    237419.95                       # Average gap between requests
system.mem_ctrls0.pageHitRate                   36.93                       # Row buffer hit rate, read and write combined
system.mem_ctrls0_0.actEnergy             23706049500                       # Energy for activate commands per rank (pJ)
system.mem_ctrls0_0.preEnergy             12600041355                       # Energy for precharge commands per rank (pJ)
system.mem_ctrls0_0.readEnergy            26499931500                       # Energy for read commands per rank (pJ)
system.mem_ctrls0_0.writeEnergy            8145408060                       # Energy for write commands per rank (pJ)
system.mem_ctrls0_0.refreshEnergy        197962021920.000031                       # Energy for refresh commands per rank (pJ)
system.mem_ctrls0_0.actBackEnergy        158924326560                       # Energy for active background per rank (pJ)
system.mem_ctrls0_0.preBackEnergy          4701061920                       # Energy for precharge background per rank (pJ)
system.mem_ctrls0_0.actPowerDownEnergy   849405188940                       # Energy for active power-down per rank (pJ)
system.mem_ctrls0_0.prePowerDownEnergy    97655019840                       # Energy for precharge power-down per rank (pJ)
system.mem_ctrls0_0.selfRefreshEnergy      6559812690                       # Energy for self refresh per rank (pJ)
system.mem_ctrls0_0.totalEnergy          1386180007845                       # Total energy per rank (pJ)
system.mem_ctrls0_0.averagePower           555.450547                       # Core power per rank (mW)
system.mem_ctrls0_0.totalIdleTime        2134786547622                       # Total Idle time Per DRAM Rank
system.mem_ctrls0_0.memoryStateTime::IDLE   2923908853                       # Time in different power states
system.mem_ctrls0_0.memoryStateTime::REF  83767328000                       # Time in different power states
system.mem_ctrls0_0.memoryStateTime::SREF  17747431344                       # Time in different power states
system.mem_ctrls0_0.memoryStateTime::PRE_PDN 254310972161                       # Time in different power states
system.mem_ctrls0_0.memoryStateTime::ACT 274117212876                       # Time in different power states
system.mem_ctrls0_0.memoryStateTime::ACT_PDN 1862728862956                       # Time in different power states
system.mem_ctrls0_1.actEnergy             23607567480                       # Energy for activate commands per rank (pJ)
system.mem_ctrls0_1.preEnergy             12547715895                       # Energy for precharge commands per rank (pJ)
system.mem_ctrls0_1.readEnergy            26316626280                       # Energy for read commands per rank (pJ)
system.mem_ctrls0_1.writeEnergy            8086902300                       # Energy for write commands per rank (pJ)
system.mem_ctrls0_1.refreshEnergy        197965095120.000031                       # Energy for refresh commands per rank (pJ)
system.mem_ctrls0_1.actBackEnergy        158633576400                       # Energy for active background per rank (pJ)
system.mem_ctrls0_1.preBackEnergy          4703540640                       # Energy for precharge background per rank (pJ)
system.mem_ctrls0_1.actPowerDownEnergy   847567542000                       # Energy for active power-down per rank (pJ)
system.mem_ctrls0_1.prePowerDownEnergy    99203971200                       # Energy for precharge power-down per rank (pJ)
system.mem_ctrls0_1.selfRefreshEnergy      6760835565                       # Energy for self refresh per rank (pJ)
system.mem_ctrls0_1.totalEnergy          1385415532110                       # Total energy per rank (pJ)
system.mem_ctrls0_1.averagePower           555.144217                       # Core power per rank (mW)
system.mem_ctrls0_1.totalIdleTime        2135419180037                       # Total Idle time Per DRAM Rank
system.mem_ctrls0_1.memoryStateTime::IDLE   2958005285                       # Time in different power states
system.mem_ctrls0_1.memoryStateTime::REF  83769054000                       # Time in different power states
system.mem_ctrls0_1.memoryStateTime::SREF  18372534418                       # Time in different power states
system.mem_ctrls0_1.memoryStateTime::PRE_PDN 258345143905                       # Time in different power states
system.mem_ctrls0_1.memoryStateTime::ACT 273449404049                       # Time in different power states
system.mem_ctrls0_1.memoryStateTime::ACT_PDN 1858701574533                       # Time in different power states
system.mem_ctrls1.pwrStateResidencyTicks::UNDEFINED 129448592240922                       # Cumulative time (in ticks) in various power states
system.mem_ctrls1.bytes_read::cpu.data            128                       # Number of bytes read from this memory
system.mem_ctrls1.bytes_read::switch_cpus.inst       117888                       # Number of bytes read from this memory
system.mem_ctrls1.bytes_read::switch_cpus.data    386595456                       # Number of bytes read from this memory
system.mem_ctrls1.bytes_read::switch_cpus_1.inst        39168                       # Number of bytes read from this memory
system.mem_ctrls1.bytes_read::switch_cpus_1.data     87664640                       # Number of bytes read from this memory
system.mem_ctrls1.bytes_read::total         474417280                       # Number of bytes read from this memory
system.mem_ctrls1.bytes_inst_read::switch_cpus.inst       117888                       # Number of instructions bytes read from this memory
system.mem_ctrls1.bytes_inst_read::switch_cpus_1.inst        39168                       # Number of instructions bytes read from this memory
system.mem_ctrls1.bytes_inst_read::total       157056                       # Number of instructions bytes read from this memory
system.mem_ctrls1.bytes_written::writebacks    198465792                       # Number of bytes written to this memory
system.mem_ctrls1.bytes_written::total      198465792                       # Number of bytes written to this memory
system.mem_ctrls1.num_reads::cpu.data               2                       # Number of read requests responded to by this memory
system.mem_ctrls1.num_reads::switch_cpus.inst         1842                       # Number of read requests responded to by this memory
system.mem_ctrls1.num_reads::switch_cpus.data      6040554                       # Number of read requests responded to by this memory
system.mem_ctrls1.num_reads::switch_cpus_1.inst          612                       # Number of read requests responded to by this memory
system.mem_ctrls1.num_reads::switch_cpus_1.data      1369760                       # Number of read requests responded to by this memory
system.mem_ctrls1.num_reads::total            7412770                       # Number of read requests responded to by this memory
system.mem_ctrls1.num_writes::writebacks      3101028                       # Number of write requests responded to by this memory
system.mem_ctrls1.num_writes::total           3101028                       # Number of write requests responded to by this memory
system.mem_ctrls1.bw_read::cpu.data                51                       # Total read bandwidth from this memory (bytes/s)
system.mem_ctrls1.bw_read::switch_cpus.inst        47238                       # Total read bandwidth from this memory (bytes/s)
system.mem_ctrls1.bw_read::switch_cpus.data    154911091                       # Total read bandwidth from this memory (bytes/s)
system.mem_ctrls1.bw_read::switch_cpus_1.inst        15695                       # Total read bandwidth from this memory (bytes/s)
system.mem_ctrls1.bw_read::switch_cpus_1.data     35127741                       # Total read bandwidth from this memory (bytes/s)
system.mem_ctrls1.bw_read::total            190101817                       # Total read bandwidth from this memory (bytes/s)
system.mem_ctrls1.bw_inst_read::switch_cpus.inst        47238                       # Instruction read bandwidth from this memory (bytes/s)
system.mem_ctrls1.bw_inst_read::switch_cpus_1.inst        15695                       # Instruction read bandwidth from this memory (bytes/s)
system.mem_ctrls1.bw_inst_read::total           62933                       # Instruction read bandwidth from this memory (bytes/s)
system.mem_ctrls1.bw_write::writebacks       79526420                       # Write bandwidth from this memory (bytes/s)
system.mem_ctrls1.bw_write::total            79526420                       # Write bandwidth from this memory (bytes/s)
system.mem_ctrls1.bw_total::writebacks       79526420                       # Total bandwidth to/from this memory (bytes/s)
system.mem_ctrls1.bw_total::cpu.data               51                       # Total bandwidth to/from this memory (bytes/s)
system.mem_ctrls1.bw_total::switch_cpus.inst        47238                       # Total bandwidth to/from this memory (bytes/s)
system.mem_ctrls1.bw_total::switch_cpus.data    154911091                       # Total bandwidth to/from this memory (bytes/s)
system.mem_ctrls1.bw_total::switch_cpus_1.inst        15695                       # Total bandwidth to/from this memory (bytes/s)
system.mem_ctrls1.bw_total::switch_cpus_1.data     35127741                       # Total bandwidth to/from this memory (bytes/s)
system.mem_ctrls1.bw_total::total           269628237                       # Total bandwidth to/from this memory (bytes/s)
system.mem_ctrls1.readReqs                    7412770                       # Number of read requests accepted
system.mem_ctrls1.writeReqs                   3101028                       # Number of write requests accepted
system.mem_ctrls1.readBursts                  7412770                       # Number of DRAM read bursts, including those serviced by the write queue
system.mem_ctrls1.writeBursts                 3101028                       # Number of DRAM write bursts, including those merged in the write queue
system.mem_ctrls1.bytesReadDRAM             474140992                       # Total number of bytes read from DRAM
system.mem_ctrls1.bytesReadWrQ                 276288                       # Total number of bytes read from write queue
system.mem_ctrls1.bytesWritten              198464704                       # Total number of bytes written to DRAM
system.mem_ctrls1.bytesReadSys              474417280                       # Total read bytes from the system interface side
system.mem_ctrls1.bytesWrittenSys           198465792                       # Total written bytes from the system interface side
system.mem_ctrls1.servicedByWrQ                  4317                       # Number of DRAM read bursts serviced by the write queue
system.mem_ctrls1.mergedWrBursts                    0                       # Number of DRAM write bursts merged with an existing one
system.mem_ctrls1.neitherReadNorWriteReqs            0                       # Number of requests that are neither read nor write
system.mem_ctrls1.perBankRdBursts::0           459364                       # Per bank write bursts
system.mem_ctrls1.perBankRdBursts::1           463900                       # Per bank write bursts
system.mem_ctrls1.perBankRdBursts::2           463915                       # Per bank write bursts
system.mem_ctrls1.perBankRdBursts::3           452850                       # Per bank write bursts
system.mem_ctrls1.perBankRdBursts::4           448105                       # Per bank write bursts
system.mem_ctrls1.perBankRdBursts::5           466007                       # Per bank write bursts
system.mem_ctrls1.perBankRdBursts::6           480877                       # Per bank write bursts
system.mem_ctrls1.perBankRdBursts::7           472385                       # Per bank write bursts
system.mem_ctrls1.perBankRdBursts::8           490073                       # Per bank write bursts
system.mem_ctrls1.perBankRdBursts::9           471329                       # Per bank write bursts
system.mem_ctrls1.perBankRdBursts::10          451517                       # Per bank write bursts
system.mem_ctrls1.perBankRdBursts::11          449907                       # Per bank write bursts
system.mem_ctrls1.perBankRdBursts::12          447639                       # Per bank write bursts
system.mem_ctrls1.perBankRdBursts::13          462877                       # Per bank write bursts
system.mem_ctrls1.perBankRdBursts::14          468190                       # Per bank write bursts
system.mem_ctrls1.perBankRdBursts::15          459518                       # Per bank write bursts
system.mem_ctrls1.perBankWrBursts::0           192444                       # Per bank write bursts
system.mem_ctrls1.perBankWrBursts::1           191117                       # Per bank write bursts
system.mem_ctrls1.perBankWrBursts::2           192690                       # Per bank write bursts
system.mem_ctrls1.perBankWrBursts::3           187404                       # Per bank write bursts
system.mem_ctrls1.perBankWrBursts::4           189456                       # Per bank write bursts
system.mem_ctrls1.perBankWrBursts::5           193107                       # Per bank write bursts
system.mem_ctrls1.perBankWrBursts::6           202621                       # Per bank write bursts
system.mem_ctrls1.perBankWrBursts::7           196289                       # Per bank write bursts
system.mem_ctrls1.perBankWrBursts::8           206730                       # Per bank write bursts
system.mem_ctrls1.perBankWrBursts::9           192863                       # Per bank write bursts
system.mem_ctrls1.perBankWrBursts::10          193958                       # Per bank write bursts
system.mem_ctrls1.perBankWrBursts::11          191638                       # Per bank write bursts
system.mem_ctrls1.perBankWrBursts::12          186432                       # Per bank write bursts
system.mem_ctrls1.perBankWrBursts::13          193595                       # Per bank write bursts
system.mem_ctrls1.perBankWrBursts::14          196937                       # Per bank write bursts
system.mem_ctrls1.perBankWrBursts::15          193730                       # Per bank write bursts
system.mem_ctrls1.numRdRetry                        0                       # Number of times read queue was full causing retry
system.mem_ctrls1.numWrRetry                        0                       # Number of times write queue was full causing retry
system.mem_ctrls1.totGap                 2495595060513                       # Total gap between requests
system.mem_ctrls1.readPktSize::0                    0                       # Read request sizes (log2)
system.mem_ctrls1.readPktSize::1                    0                       # Read request sizes (log2)
system.mem_ctrls1.readPktSize::2                    0                       # Read request sizes (log2)
system.mem_ctrls1.readPktSize::3                    0                       # Read request sizes (log2)
system.mem_ctrls1.readPktSize::4                    0                       # Read request sizes (log2)
system.mem_ctrls1.readPktSize::5                    0                       # Read request sizes (log2)
system.mem_ctrls1.readPktSize::6              7412770                       # Read request sizes (log2)
system.mem_ctrls1.writePktSize::0                   0                       # Write request sizes (log2)
system.mem_ctrls1.writePktSize::1                   0                       # Write request sizes (log2)
system.mem_ctrls1.writePktSize::2                   0                       # Write request sizes (log2)
system.mem_ctrls1.writePktSize::3                   0                       # Write request sizes (log2)
system.mem_ctrls1.writePktSize::4                   0                       # Write request sizes (log2)
system.mem_ctrls1.writePktSize::5                   0                       # Write request sizes (log2)
system.mem_ctrls1.writePktSize::6             3101028                       # Write request sizes (log2)
system.mem_ctrls1.rdQLenPdf::0                7110514                       # What read queue length does an incoming req see
system.mem_ctrls1.rdQLenPdf::1                 262596                       # What read queue length does an incoming req see
system.mem_ctrls1.rdQLenPdf::2                  33184                       # What read queue length does an incoming req see
system.mem_ctrls1.rdQLenPdf::3                   2157                       # What read queue length does an incoming req see
system.mem_ctrls1.rdQLenPdf::4                      2                       # What read queue length does an incoming req see
system.mem_ctrls1.rdQLenPdf::5                      0                       # What read queue length does an incoming req see
system.mem_ctrls1.rdQLenPdf::6                      0                       # What read queue length does an incoming req see
system.mem_ctrls1.rdQLenPdf::7                      0                       # What read queue length does an incoming req see
system.mem_ctrls1.rdQLenPdf::8                      0                       # What read queue length does an incoming req see
system.mem_ctrls1.rdQLenPdf::9                      0                       # What read queue length does an incoming req see
system.mem_ctrls1.rdQLenPdf::10                     0                       # What read queue length does an incoming req see
system.mem_ctrls1.rdQLenPdf::11                     0                       # What read queue length does an incoming req see
system.mem_ctrls1.rdQLenPdf::12                     0                       # What read queue length does an incoming req see
system.mem_ctrls1.rdQLenPdf::13                     0                       # What read queue length does an incoming req see
system.mem_ctrls1.rdQLenPdf::14                     0                       # What read queue length does an incoming req see
system.mem_ctrls1.rdQLenPdf::15                     0                       # What read queue length does an incoming req see
system.mem_ctrls1.rdQLenPdf::16                     0                       # What read queue length does an incoming req see
system.mem_ctrls1.rdQLenPdf::17                     0                       # What read queue length does an incoming req see
system.mem_ctrls1.rdQLenPdf::18                     0                       # What read queue length does an incoming req see
system.mem_ctrls1.rdQLenPdf::19                     0                       # What read queue length does an incoming req see
system.mem_ctrls1.rdQLenPdf::20                     0                       # What read queue length does an incoming req see
system.mem_ctrls1.rdQLenPdf::21                     0                       # What read queue length does an incoming req see
system.mem_ctrls1.rdQLenPdf::22                     0                       # What read queue length does an incoming req see
system.mem_ctrls1.rdQLenPdf::23                     0                       # What read queue length does an incoming req see
system.mem_ctrls1.rdQLenPdf::24                     0                       # What read queue length does an incoming req see
system.mem_ctrls1.rdQLenPdf::25                     0                       # What read queue length does an incoming req see
system.mem_ctrls1.rdQLenPdf::26                     0                       # What read queue length does an incoming req see
system.mem_ctrls1.rdQLenPdf::27                     0                       # What read queue length does an incoming req see
system.mem_ctrls1.rdQLenPdf::28                     0                       # What read queue length does an incoming req see
system.mem_ctrls1.rdQLenPdf::29                     0                       # What read queue length does an incoming req see
system.mem_ctrls1.rdQLenPdf::30                     0                       # What read queue length does an incoming req see
system.mem_ctrls1.rdQLenPdf::31                     0                       # What read queue length does an incoming req see
system.mem_ctrls1.wrQLenPdf::0                      2                       # What write queue length does an incoming req see
system.mem_ctrls1.wrQLenPdf::1                      2                       # What write queue length does an incoming req see
system.mem_ctrls1.wrQLenPdf::2                      2                       # What write queue length does an incoming req see
system.mem_ctrls1.wrQLenPdf::3                      2                       # What write queue length does an incoming req see
system.mem_ctrls1.wrQLenPdf::4                      2                       # What write queue length does an incoming req see
system.mem_ctrls1.wrQLenPdf::5                      2                       # What write queue length does an incoming req see
system.mem_ctrls1.wrQLenPdf::6                      2                       # What write queue length does an incoming req see
system.mem_ctrls1.wrQLenPdf::7                      2                       # What write queue length does an incoming req see
system.mem_ctrls1.wrQLenPdf::8                      2                       # What write queue length does an incoming req see
system.mem_ctrls1.wrQLenPdf::9                      2                       # What write queue length does an incoming req see
system.mem_ctrls1.wrQLenPdf::10                     2                       # What write queue length does an incoming req see
system.mem_ctrls1.wrQLenPdf::11                     2                       # What write queue length does an incoming req see
system.mem_ctrls1.wrQLenPdf::12                     2                       # What write queue length does an incoming req see
system.mem_ctrls1.wrQLenPdf::13                     2                       # What write queue length does an incoming req see
system.mem_ctrls1.wrQLenPdf::14                     2                       # What write queue length does an incoming req see
system.mem_ctrls1.wrQLenPdf::15                105769                       # What write queue length does an incoming req see
system.mem_ctrls1.wrQLenPdf::16                109618                       # What write queue length does an incoming req see
system.mem_ctrls1.wrQLenPdf::17                176497                       # What write queue length does an incoming req see
system.mem_ctrls1.wrQLenPdf::18                180470                       # What write queue length does an incoming req see
system.mem_ctrls1.wrQLenPdf::19                180530                       # What write queue length does an incoming req see
system.mem_ctrls1.wrQLenPdf::20                180418                       # What write queue length does an incoming req see
system.mem_ctrls1.wrQLenPdf::21                180340                       # What write queue length does an incoming req see
system.mem_ctrls1.wrQLenPdf::22                180333                       # What write queue length does an incoming req see
system.mem_ctrls1.wrQLenPdf::23                180263                       # What write queue length does an incoming req see
system.mem_ctrls1.wrQLenPdf::24                180265                       # What write queue length does an incoming req see
system.mem_ctrls1.wrQLenPdf::25                180236                       # What write queue length does an incoming req see
system.mem_ctrls1.wrQLenPdf::26                180244                       # What write queue length does an incoming req see
system.mem_ctrls1.wrQLenPdf::27                180532                       # What write queue length does an incoming req see
system.mem_ctrls1.wrQLenPdf::28                180619                       # What write queue length does an incoming req see
system.mem_ctrls1.wrQLenPdf::29                183023                       # What write queue length does an incoming req see
system.mem_ctrls1.wrQLenPdf::30                181877                       # What write queue length does an incoming req see
system.mem_ctrls1.wrQLenPdf::31                179978                       # What write queue length does an incoming req see
system.mem_ctrls1.wrQLenPdf::32                179936                       # What write queue length does an incoming req see
system.mem_ctrls1.wrQLenPdf::33                    48                       # What write queue length does an incoming req see
system.mem_ctrls1.wrQLenPdf::34                     2                       # What write queue length does an incoming req see
system.mem_ctrls1.wrQLenPdf::35                     0                       # What write queue length does an incoming req see
system.mem_ctrls1.wrQLenPdf::36                     0                       # What write queue length does an incoming req see
system.mem_ctrls1.wrQLenPdf::37                     0                       # What write queue length does an incoming req see
system.mem_ctrls1.wrQLenPdf::38                     0                       # What write queue length does an incoming req see
system.mem_ctrls1.wrQLenPdf::39                     0                       # What write queue length does an incoming req see
system.mem_ctrls1.wrQLenPdf::40                     0                       # What write queue length does an incoming req see
system.mem_ctrls1.wrQLenPdf::41                     0                       # What write queue length does an incoming req see
system.mem_ctrls1.wrQLenPdf::42                     0                       # What write queue length does an incoming req see
system.mem_ctrls1.wrQLenPdf::43                     0                       # What write queue length does an incoming req see
system.mem_ctrls1.wrQLenPdf::44                     0                       # What write queue length does an incoming req see
system.mem_ctrls1.wrQLenPdf::45                     0                       # What write queue length does an incoming req see
system.mem_ctrls1.wrQLenPdf::46                     0                       # What write queue length does an incoming req see
system.mem_ctrls1.wrQLenPdf::47                     0                       # What write queue length does an incoming req see
system.mem_ctrls1.wrQLenPdf::48                     0                       # What write queue length does an incoming req see
system.mem_ctrls1.wrQLenPdf::49                     0                       # What write queue length does an incoming req see
system.mem_ctrls1.wrQLenPdf::50                     0                       # What write queue length does an incoming req see
system.mem_ctrls1.wrQLenPdf::51                     0                       # What write queue length does an incoming req see
system.mem_ctrls1.wrQLenPdf::52                     0                       # What write queue length does an incoming req see
system.mem_ctrls1.wrQLenPdf::53                     0                       # What write queue length does an incoming req see
system.mem_ctrls1.wrQLenPdf::54                     0                       # What write queue length does an incoming req see
system.mem_ctrls1.wrQLenPdf::55                     0                       # What write queue length does an incoming req see
system.mem_ctrls1.wrQLenPdf::56                     0                       # What write queue length does an incoming req see
system.mem_ctrls1.wrQLenPdf::57                     0                       # What write queue length does an incoming req see
system.mem_ctrls1.wrQLenPdf::58                     0                       # What write queue length does an incoming req see
system.mem_ctrls1.wrQLenPdf::59                     0                       # What write queue length does an incoming req see
system.mem_ctrls1.wrQLenPdf::60                     0                       # What write queue length does an incoming req see
system.mem_ctrls1.wrQLenPdf::61                     0                       # What write queue length does an incoming req see
system.mem_ctrls1.wrQLenPdf::62                     0                       # What write queue length does an incoming req see
system.mem_ctrls1.wrQLenPdf::63                     0                       # What write queue length does an incoming req see
system.mem_ctrls1.bytesPerActivate::samples      6614208                       # Bytes accessed per row activation
system.mem_ctrls1.bytesPerActivate::mean   101.690915                       # Bytes accessed per row activation
system.mem_ctrls1.bytesPerActivate::gmean    83.416256                       # Bytes accessed per row activation
system.mem_ctrls1.bytesPerActivate::stdev    95.958534                       # Bytes accessed per row activation
system.mem_ctrls1.bytesPerActivate::0-127      5012626     75.79%     75.79% # Bytes accessed per row activation
system.mem_ctrls1.bytesPerActivate::128-255      1110600     16.79%     92.58% # Bytes accessed per row activation
system.mem_ctrls1.bytesPerActivate::256-383       269657      4.08%     96.65% # Bytes accessed per row activation
system.mem_ctrls1.bytesPerActivate::384-511       120326      1.82%     98.47% # Bytes accessed per row activation
system.mem_ctrls1.bytesPerActivate::512-639        59097      0.89%     99.37% # Bytes accessed per row activation
system.mem_ctrls1.bytesPerActivate::640-767        22964      0.35%     99.71% # Bytes accessed per row activation
system.mem_ctrls1.bytesPerActivate::768-895         9659      0.15%     99.86% # Bytes accessed per row activation
system.mem_ctrls1.bytesPerActivate::896-1023         5128      0.08%     99.94% # Bytes accessed per row activation
system.mem_ctrls1.bytesPerActivate::1024-1151         4151      0.06%    100.00% # Bytes accessed per row activation
system.mem_ctrls1.bytesPerActivate::total      6614208                       # Bytes accessed per row activation
system.mem_ctrls1.rdPerTurnAround::samples       179918                       # Reads before turning the bus around for writes
system.mem_ctrls1.rdPerTurnAround::mean     41.176792                       # Reads before turning the bus around for writes
system.mem_ctrls1.rdPerTurnAround::gmean    39.482758                       # Reads before turning the bus around for writes
system.mem_ctrls1.rdPerTurnAround::stdev    57.944710                       # Reads before turning the bus around for writes
system.mem_ctrls1.rdPerTurnAround::0-1023       179916    100.00%    100.00% # Reads before turning the bus around for writes
system.mem_ctrls1.rdPerTurnAround::1024-2047            1      0.00%    100.00% # Reads before turning the bus around for writes
system.mem_ctrls1.rdPerTurnAround::23552-24575            1      0.00%    100.00% # Reads before turning the bus around for writes
system.mem_ctrls1.rdPerTurnAround::total       179918                       # Reads before turning the bus around for writes
system.mem_ctrls1.wrPerTurnAround::samples       179918                       # Writes before turning the bus around for reads
system.mem_ctrls1.wrPerTurnAround::mean     17.235691                       # Writes before turning the bus around for reads
system.mem_ctrls1.wrPerTurnAround::gmean    17.204372                       # Writes before turning the bus around for reads
system.mem_ctrls1.wrPerTurnAround::stdev     1.033939                       # Writes before turning the bus around for reads
system.mem_ctrls1.wrPerTurnAround::16           71518     39.75%     39.75% # Writes before turning the bus around for reads
system.mem_ctrls1.wrPerTurnAround::17            2335      1.30%     41.05% # Writes before turning the bus around for reads
system.mem_ctrls1.wrPerTurnAround::18           98697     54.86%     95.90% # Writes before turning the bus around for reads
system.mem_ctrls1.wrPerTurnAround::19            6918      3.85%     99.75% # Writes before turning the bus around for reads
system.mem_ctrls1.wrPerTurnAround::20             422      0.23%     99.98% # Writes before turning the bus around for reads
system.mem_ctrls1.wrPerTurnAround::21              25      0.01%    100.00% # Writes before turning the bus around for reads
system.mem_ctrls1.wrPerTurnAround::22               2      0.00%    100.00% # Writes before turning the bus around for reads
system.mem_ctrls1.wrPerTurnAround::31               1      0.00%    100.00% # Writes before turning the bus around for reads
system.mem_ctrls1.wrPerTurnAround::total       179918                       # Writes before turning the bus around for reads
system.mem_ctrls1.totQLat                155719631058                       # Total ticks spent queuing
system.mem_ctrls1.totMemAccLat           294628124808                       # Total ticks spent from burst creation until serviced by the DRAM
system.mem_ctrls1.totBusLat               37042265000                       # Total ticks spent in databus transfers
system.mem_ctrls1.avgQLat                    21019.18                       # Average queueing delay per DRAM burst
system.mem_ctrls1.avgBusLat                   5000.00                       # Average bus latency per DRAM burst
system.mem_ctrls1.avgMemAccLat               39769.18                       # Average memory access latency per DRAM burst
system.mem_ctrls1.avgRdBW                      189.99                       # Average DRAM read bandwidth in MiByte/s
system.mem_ctrls1.avgWrBW                       79.53                       # Average achieved write bandwidth in MiByte/s
system.mem_ctrls1.avgRdBWSys                   190.10                       # Average system read bandwidth in MiByte/s
system.mem_ctrls1.avgWrBWSys                    79.53                       # Average system write bandwidth in MiByte/s
system.mem_ctrls1.peakBW                     12800.00                       # Theoretical peak bandwidth in MiByte/s
system.mem_ctrls1.busUtil                        2.11                       # Data bus utilization in percentage
system.mem_ctrls1.busUtilRead                    1.48                       # Data bus utilization in percentage for reads
system.mem_ctrls1.busUtilWrite                   0.62                       # Data bus utilization in percentage for writes
system.mem_ctrls1.avgRdQLen                      1.02                       # Average read queue length when enqueuing
system.mem_ctrls1.avgWrQLen                     24.80                       # Average write queue length when enqueuing
system.mem_ctrls1.readRowHits                 3840820                       # Number of row buffer hits during reads
system.mem_ctrls1.writeRowHits                  54426                       # Number of row buffer hits during writes
system.mem_ctrls1.readRowHitRate                51.84                       # Row buffer hit rate for reads
system.mem_ctrls1.writeRowHitRate                1.76                       # Row buffer hit rate for writes
system.mem_ctrls1.avgGap                    237363.80                       # Average gap between requests
system.mem_ctrls1.pageHitRate                   37.06                       # Row buffer hit rate, read and write combined
system.mem_ctrls1_0.actEnergy             23577543780                       # Energy for activate commands per rank (pJ)
system.mem_ctrls1_0.preEnergy             12531735150                       # Energy for precharge commands per rank (pJ)
system.mem_ctrls1_0.readEnergy            26470857420                       # Energy for read commands per rank (pJ)
system.mem_ctrls1_0.writeEnergy            8065568160                       # Energy for write commands per rank (pJ)
system.mem_ctrls1_0.refreshEnergy        197839708560.000031                       # Energy for refresh commands per rank (pJ)
system.mem_ctrls1_0.actBackEnergy        158151389460                       # Energy for active background per rank (pJ)
system.mem_ctrls1_0.preBackEnergy          4683428160                       # Energy for precharge background per rank (pJ)
system.mem_ctrls1_0.actPowerDownEnergy   849827422710                       # Energy for active power-down per rank (pJ)
system.mem_ctrls1_0.prePowerDownEnergy    97913270880                       # Energy for precharge power-down per rank (pJ)
system.mem_ctrls1_0.selfRefreshEnergy      6486696945                       # Energy for self refresh per rank (pJ)
system.mem_ctrls1_0.totalEnergy          1385566427415                       # Total energy per rank (pJ)
system.mem_ctrls1_0.averagePower           555.204680                       # Core power per rank (mW)
system.mem_ctrls1_0.totalIdleTime        2136536714431                       # Total Idle time Per DRAM Rank
system.mem_ctrls1_0.memoryStateTime::IDLE   2874478843                       # Time in different power states
system.mem_ctrls1_0.memoryStateTime::REF  83714184000                       # Time in different power states
system.mem_ctrls1_0.memoryStateTime::SREF  17895078962                       # Time in different power states
system.mem_ctrls1_0.memoryStateTime::PRE_PDN 254981468994                       # Time in different power states
system.mem_ctrls1_0.memoryStateTime::ACT 272469296267                       # Time in different power states
system.mem_ctrls1_0.memoryStateTime::ACT_PDN 1863661209124                       # Time in different power states
system.mem_ctrls1_1.actEnergy             23647972740                       # Energy for activate commands per rank (pJ)
system.mem_ctrls1_1.preEnergy             12569184210                       # Energy for precharge commands per rank (pJ)
system.mem_ctrls1_1.readEnergy            26425497000                       # Energy for read commands per rank (pJ)
system.mem_ctrls1_1.writeEnergy            8121709260                       # Energy for write commands per rank (pJ)
system.mem_ctrls1_1.refreshEnergy        198009349200.000031                       # Energy for refresh commands per rank (pJ)
system.mem_ctrls1_1.actBackEnergy        158961394800                       # Energy for active background per rank (pJ)
system.mem_ctrls1_1.preBackEnergy          4712903520                       # Energy for precharge background per rank (pJ)
system.mem_ctrls1_1.actPowerDownEnergy   847541967810                       # Energy for active power-down per rank (pJ)
system.mem_ctrls1_1.prePowerDownEnergy    98909003040                       # Energy for precharge power-down per rank (pJ)
system.mem_ctrls1_1.selfRefreshEnergy      6829237695                       # Energy for self refresh per rank (pJ)
system.mem_ctrls1_1.totalEnergy          1385749883055                       # Total energy per rank (pJ)
system.mem_ctrls1_1.averagePower           555.278193                       # Core power per rank (mW)
system.mem_ctrls1_1.totalIdleTime        2134673645843                       # Total Idle time Per DRAM Rank
system.mem_ctrls1_1.memoryStateTime::IDLE   2980069851                       # Time in different power states
system.mem_ctrls1_1.memoryStateTime::REF  83788488000                       # Time in different power states
system.mem_ctrls1_1.memoryStateTime::SREF  18454529042                       # Time in different power states
system.mem_ctrls1_1.memoryStateTime::PRE_PDN 257575939837                       # Time in different power states
system.mem_ctrls1_1.memoryStateTime::ACT 274153004210                       # Time in different power states
system.mem_ctrls1_1.memoryStateTime::ACT_PDN 1858643685250                       # Time in different power states
system.pwrStateResidencyTicks::UNDEFINED 129448592240922                       # Cumulative time (in ticks) in various power states
system.cpu.branchPred.lookups                       3                       # Number of BP lookups
system.cpu.branchPred.condPredicted                 3                       # Number of conditional branches predicted
system.cpu.branchPred.condIncorrect                 1                       # Number of conditional branches incorrect
system.cpu.branchPred.BTBLookups                    0                       # Number of BTB lookups
system.cpu.branchPred.BTBHits                       0                       # Number of BTB hits
system.cpu.branchPred.BTBCorrect                    0                       # Number of correct BTB predictions (this stat may not work properly.
system.cpu.branchPred.BTBHitPct                   nan                       # BTB Hit Percentage
system.cpu.branchPred.usedRAS                       0                       # Number of times the RAS was used to get a target.
system.cpu.branchPred.RASInCorrect                  0                       # Number of incorrect RAS predictions.
system.cpu.branchPred.indirectLookups               0                       # Number of indirect predictor lookups.
system.cpu.branchPred.indirectHits                  0                       # Number of indirect target hits.
system.cpu.branchPred.indirectMisses                0                       # Number of indirect misses.
system.cpu.branchPredindirectMispredicted            0                       # Number of mispredicted indirect branches.
system.cpu_voltage_domain.voltage                   1                       # Voltage in Volts
system.cpu_clk_domain.clock                       333                       # Clock period in ticks
system.cpu.dtb.fetch_hits                           0                       # ITB hits
system.cpu.dtb.fetch_misses                         0                       # ITB misses
system.cpu.dtb.fetch_acv                            0                       # ITB acv
system.cpu.dtb.fetch_accesses                       0                       # ITB accesses
system.cpu.dtb.read_hits                            2                       # DTB read hits
system.cpu.dtb.read_misses                          0                       # DTB read misses
system.cpu.dtb.read_acv                             0                       # DTB read access violations
system.cpu.dtb.read_accesses                        2                       # DTB read accesses
system.cpu.dtb.write_hits                           0                       # DTB write hits
system.cpu.dtb.write_misses                         0                       # DTB write misses
system.cpu.dtb.write_acv                            0                       # DTB write access violations
system.cpu.dtb.write_accesses                       0                       # DTB write accesses
system.cpu.dtb.data_hits                            2                       # DTB hits
system.cpu.dtb.data_misses                          0                       # DTB misses
system.cpu.dtb.data_acv                             0                       # DTB access violations
system.cpu.dtb.data_accesses                        2                       # DTB accesses
system.cpu.itb.fetch_hits                           3                       # ITB hits
system.cpu.itb.fetch_misses                         0                       # ITB misses
system.cpu.itb.fetch_acv                            0                       # ITB acv
system.cpu.itb.fetch_accesses                       3                       # ITB accesses
system.cpu.itb.read_hits                            0                       # DTB read hits
system.cpu.itb.read_misses                          0                       # DTB read misses
system.cpu.itb.read_acv                             0                       # DTB read access violations
system.cpu.itb.read_accesses                        0                       # DTB read accesses
system.cpu.itb.write_hits                           0                       # DTB write hits
system.cpu.itb.write_misses                         0                       # DTB write misses
system.cpu.itb.write_acv                            0                       # DTB write access violations
system.cpu.itb.write_accesses                       0                       # DTB write accesses
system.cpu.itb.data_hits                            0                       # DTB hits
system.cpu.itb.data_misses                          0                       # DTB misses
system.cpu.itb.data_acv                             0                       # DTB access violations
system.cpu.itb.data_accesses                        0                       # DTB accesses
system.cpu.workload.num_syscalls                    0                       # Number of system calls
system.cpu.pwrStateResidencyTicks::ON    2495595716190                       # Cumulative time (in ticks) in various power states
system.cpu.numCycles                              291                       # number of cpu cycles simulated
system.cpu.numWorkItemsStarted                      0                       # number of work items this cpu started
system.cpu.numWorkItemsCompleted                    0                       # number of work items this cpu completed
system.cpu.fetch.icacheStallCycles                 19                       # Number of cycles fetch is stalled on an Icache miss
system.cpu.fetch.Insts                              9                       # Number of instructions fetch has processed
system.cpu.fetch.Branches                           3                       # Number of branches that fetch encountered
system.cpu.fetch.Cycles                             2                       # Number of cycles fetch has run and was not squashing or blocked
system.cpu.fetch.SquashCycles                       5                       # Number of cycles fetch has spent squashing
system.cpu.fetch.PendingDrainCycles                 3                       # Number of cycles fetch has spent waiting on pipes to drain
system.cpu.fetch.CacheLines                         3                       # Number of cache lines fetched
system.cpu.fetch.IcacheSquashes                     2                       # Number of outstanding Icache misses that were squashed
system.cpu.fetch.rateDist::samples                 26                       # Number of instructions fetched each cycle (Total)
system.cpu.fetch.rateDist::mean              0.346154                       # Number of instructions fetched each cycle (Total)
system.cpu.fetch.rateDist::stdev             1.573336                       # Number of instructions fetched each cycle (Total)
system.cpu.fetch.rateDist::underflows               0      0.00%      0.00% # Number of instructions fetched each cycle (Total)
system.cpu.fetch.rateDist::0                       24     92.31%     92.31% # Number of instructions fetched each cycle (Total)
system.cpu.fetch.rateDist::1                        1      3.85%     96.15% # Number of instructions fetched each cycle (Total)
system.cpu.fetch.rateDist::2                        0      0.00%     96.15% # Number of instructions fetched each cycle (Total)
system.cpu.fetch.rateDist::3                        0      0.00%     96.15% # Number of instructions fetched each cycle (Total)
system.cpu.fetch.rateDist::4                        0      0.00%     96.15% # Number of instructions fetched each cycle (Total)
system.cpu.fetch.rateDist::5                        0      0.00%     96.15% # Number of instructions fetched each cycle (Total)
system.cpu.fetch.rateDist::6                        0      0.00%     96.15% # Number of instructions fetched each cycle (Total)
system.cpu.fetch.rateDist::7                        0      0.00%     96.15% # Number of instructions fetched each cycle (Total)
system.cpu.fetch.rateDist::8                        1      3.85%    100.00% # Number of instructions fetched each cycle (Total)
system.cpu.fetch.rateDist::overflows                0      0.00%    100.00% # Number of instructions fetched each cycle (Total)
system.cpu.fetch.rateDist::min_value                0                       # Number of instructions fetched each cycle (Total)
system.cpu.fetch.rateDist::max_value                8                       # Number of instructions fetched each cycle (Total)
system.cpu.fetch.rateDist::total                   26                       # Number of instructions fetched each cycle (Total)
[...]
system.switch_cpus_1.iq.int_inst_queue_wakeup_accesses    319770152                       # Number of integer instruction queue wakeup accesses
system.switch_cpus_1.iq.fp_inst_queue_reads     69674298                       # Number of floating instruction queue reads
system.switch_cpus_1.iq.fp_inst_queue_writes    111946390                       # Number of floating instruction queue writes
system.switch_cpus_1.iq.fp_inst_queue_wakeup_accesses     28693233                       # Number of floating instruction queue wakeup accesses
system.switch_cpus_1.iq.int_alu_accesses    350192580                       # Number of integer alu accesses
system.switch_cpus_1.iq.fp_alu_accesses      35019786                       # Number of floating point alu accesses
system.switch_cpus_1.iew.lsq.thread0.forwLoads      9323627                       # Number of loads that had data forwarded from stores
system.switch_cpus_1.iew.lsq.thread0.invAddrLoads            0                       # Number of loads ignored due to an invalid address
system.switch_cpus_1.iew.lsq.thread0.squashedLoads     67926668                       # Number of loads squashed
system.switch_cpus_1.iew.lsq.thread0.ignoredResponses        25032                       # Number of memory responses ignored because the instruction is squashed
system.switch_cpus_1.iew.lsq.thread0.memOrderViolation        11032                       # Number of memory ordering violations
system.switch_cpus_1.iew.lsq.thread0.squashedStores     29383335                       # Number of stores squashed
system.switch_cpus_1.iew.lsq.thread0.invAddrSwpfs            0                       # Number of software prefetches ignored due to an invalid address
system.switch_cpus_1.iew.lsq.thread0.blockedLoads            0                       # Number of blocked loads due to partial load-store forwarding
system.switch_cpus_1.iew.lsq.thread0.rescheduledLoads          399                       # Number of loads that were rescheduled
system.switch_cpus_1.iew.lsq.thread0.cacheBlocked      2469389                       # Number of times an access to memory failed due to the cache being blocked
system.switch_cpus_1.iew.iewIdleCycles              0                       # Number of cycles IEW is idle
system.switch_cpus_1.iew.iewSquashCycles      3801572                       # Number of cycles IEW is squashing
system.switch_cpus_1.iew.iewBlockCycles     153654252                       # Number of cycles IEW is blocking
system.switch_cpus_1.iew.iewUnblockCycles     83590502                       # Number of cycles IEW is unblocking
system.switch_cpus_1.iew.iewDispatchedInsts    486126241                       # Number of instructions dispatched to IQ
system.switch_cpus_1.iew.iewDispSquashedInsts       127998                       # Number of squashed instructions skipped by dispatch
system.switch_cpus_1.iew.iewDispLoadInsts    115653924                       # Number of dispatched load instructions
system.switch_cpus_1.iew.iewDispStoreInsts     58612162                       # Number of dispatched store instructions
system.switch_cpus_1.iew.iewDispNonSpecInsts       528683                       # Number of dispatched non-speculative instructions
system.switch_cpus_1.iew.iewIQFullEvents      1251435                       # Number of times the IQ has become full, causing a stall
system.switch_cpus_1.iew.iewLSQFullEvents     82090498                       # Number of times the LSQ has become full, causing a stall
system.switch_cpus_1.iew.memOrderViolationEvents        11032                       # Number of memory order violations
system.switch_cpus_1.iew.predictedTakenIncorrect       755882                       # Number of branches that were predicted taken incorrectly
system.switch_cpus_1.iew.predictedNotTakenIncorrect      1134483                       # Number of branches that were predicted not taken incorrectly
system.switch_cpus_1.iew.branchMispredicts      1890365                       # Number of branch mispredicts detected at execute
system.switch_cpus_1.iew.iewExecutedInsts    374069794                       # Number of executed instructions
system.switch_cpus_1.iew.iewExecLoadInsts    102120221                       # Number of load instructions executed
system.switch_cpus_1.iew.iewExecSquashedInsts      4213541                       # Number of squashed instructions skipped in execute
system.switch_cpus_1.iew.exec_swp                   0                       # number of swp insts executed
system.switch_cpus_1.iew.exec_nop            23155753                       # number of nop insts executed
system.switch_cpus_1.iew.exec_refs          154268087                       # number of memory reference insts executed
system.switch_cpus_1.iew.exec_branches       72317263                       # Number of branches executed
system.switch_cpus_1.iew.exec_stores         52147866                       # Number of stores executed
system.switch_cpus_1.iew.exec_rate           0.539673                       # Inst execution rate
system.switch_cpus_1.iew.wb_sent            368883364                       # cumulative count of insts sent to commit
system.switch_cpus_1.iew.wb_count           348463385                       # cumulative count of insts written-back
system.switch_cpus_1.iew.wb_producers       176387322                       # num instructions producing a value
system.switch_cpus_1.iew.wb_consumers       258698425                       # num instructions consuming a value
system.switch_cpus_1.iew.wb_rate             0.502730                       # insts written-back per cycle
system.switch_cpus_1.iew.wb_fanout           0.681826                       # average fanout of values written-back
system.switch_cpus_1.commit.commitSquashedInsts    228833670                       # The number of squashed insts skipped by commit
system.switch_cpus_1.commit.commitNonSpecStalls       665598                       # The number of times commit has been forced to stall to communicate backwards
system.switch_cpus_1.commit.branchMispredicts      1448183                       # The number of times a branch was mispredicted
system.switch_cpus_1.commit.committed_per_cycle::samples    660251043                       # Number of insts commited each cycle
system.switch_cpus_1.commit.committed_per_cycle::mean     0.323505                       # Number of insts commited each cycle
system.switch_cpus_1.commit.committed_per_cycle::stdev     1.374202                       # Number of insts commited each cycle
system.switch_cpus_1.commit.committed_per_cycle::underflows            0      0.00%      0.00% # Number of insts commited each cycle
system.switch_cpus_1.commit.committed_per_cycle::0    605952941     91.78%     91.78% # Number of insts commited each cycle
system.switch_cpus_1.commit.committed_per_cycle::1     19958379      3.02%     94.80% # Number of insts commited each cycle
system.switch_cpus_1.commit.committed_per_cycle::2      6024015      0.91%     95.71% # Number of insts commited each cycle
system.switch_cpus_1.commit.committed_per_cycle::3      3745409      0.57%     96.28% # Number of insts commited each cycle
system.switch_cpus_1.commit.committed_per_cycle::4      3307682      0.50%     96.78% # Number of insts commited each cycle
system.switch_cpus_1.commit.committed_per_cycle::5      2553035      0.39%     97.17% # Number of insts commited each cycle
system.switch_cpus_1.commit.committed_per_cycle::6      1911965      0.29%     97.46% # Number of insts commited each cycle
system.switch_cpus_1.commit.committed_per_cycle::7      1496855      0.23%     97.68% # Number of insts commited each cycle
system.switch_cpus_1.commit.committed_per_cycle::8     15300762      2.32%    100.00% # Number of insts commited each cycle
system.switch_cpus_1.commit.committed_per_cycle::overflows            0      0.00%    100.00% # Number of insts commited each cycle
system.switch_cpus_1.commit.committed_per_cycle::min_value            0                       # Number of insts commited each cycle
system.switch_cpus_1.commit.committed_per_cycle::max_value            8                       # Number of insts commited each cycle
system.switch_cpus_1.commit.committed_per_cycle::total    660251043                       # Number of insts commited each cycle
system.switch_cpus_1.commit.committedInsts    213594410                       # Number of instructions committed
system.switch_cpus_1.commit.committedOps    213594410                       # Number of ops (including micro ops) committed
system.switch_cpus_1.commit.swp_count               0                       # Number of s/w prefetches committed
system.switch_cpus_1.commit.refs             76956073                       # Number of memory references committed
system.switch_cpus_1.commit.loads            47727246                       # Number of loads committed
system.switch_cpus_1.commit.membars            332799                       # Number of memory barriers committed
system.switch_cpus_1.commit.branches         42872050                       # Number of branches committed
system.switch_cpus_1.commit.fp_insts         19258208                       # Number of committed floating point instructions.
system.switch_cpus_1.commit.int_insts       185197309                       # Number of committed integer instructions.
system.switch_cpus_1.commit.function_calls      6276853                       # Number of function calls committed.
system.switch_cpus_1.commit.op_class_0::No_OpClass     13768422      6.45%      6.45% # Class of committed instruction
system.switch_cpus_1.commit.op_class_0::IntAlu    110964867     51.95%     58.40% # Class of committed instruction
system.switch_cpus_1.commit.op_class_0::IntMult        87084      0.04%     58.44% # Class of committed instruction
system.switch_cpus_1.commit.op_class_0::IntDiv            0      0.00%     58.44% # Class of committed instruction
system.switch_cpus_1.commit.op_class_0::FloatAdd      6284834      2.94%     61.38% # Class of committed instruction
system.switch_cpus_1.commit.op_class_0::FloatCmp      4706081      2.20%     63.58% # Class of committed instruction
system.switch_cpus_1.commit.op_class_0::FloatCvt       352967      0.17%     63.75% # Class of committed instruction
system.switch_cpus_1.commit.op_class_0::FloatMult        54220      0.03%     63.77% # Class of committed instruction
system.switch_cpus_1.commit.op_class_0::FloatMultAcc            0      0.00%     63.77% # Class of committed instruction
system.switch_cpus_1.commit.op_class_0::FloatDiv        87048      0.04%     63.82% # Class of committed instruction
system.switch_cpus_1.commit.op_class_0::FloatMisc            0      0.00%     63.82% # Class of committed instruction
system.switch_cpus_1.commit.op_class_0::FloatSqrt           15      0.00%     63.82% # Class of committed instruction
system.switch_cpus_1.commit.op_class_0::SimdAdd            0      0.00%     63.82% # Class of committed instruction
system.switch_cpus_1.commit.op_class_0::SimdAddAcc            0      0.00%     63.82% # Class of committed instruction
system.switch_cpus_1.commit.op_class_0::SimdAlu            0      0.00%     63.82% # Class of committed instruction
system.switch_cpus_1.commit.op_class_0::SimdCmp            0      0.00%     63.82% # Class of committed instruction
system.switch_cpus_1.commit.op_class_0::SimdCvt            0      0.00%     63.82% # Class of committed instruction
system.switch_cpus_1.commit.op_class_0::SimdMisc            0      0.00%     63.82% # Class of committed instruction
system.switch_cpus_1.commit.op_class_0::SimdMult            0      0.00%     63.82% # Class of committed instruction
system.switch_cpus_1.commit.op_class_0::SimdMultAcc            0      0.00%     63.82% # Class of committed instruction
system.switch_cpus_1.commit.op_class_0::SimdShift            0      0.00%     63.82% # Class of committed instruction
system.switch_cpus_1.commit.op_class_0::SimdShiftAcc            0      0.00%     63.82% # Class of committed instruction
system.switch_cpus_1.commit.op_class_0::SimdSqrt            0      0.00%     63.82% # Class of committed instruction
system.switch_cpus_1.commit.op_class_0::SimdFloatAdd            0      0.00%     63.82% # Class of committed instruction
system.switch_cpus_1.commit.op_class_0::SimdFloatAlu            0      0.00%     63.82% # Class of committed instruction
system.switch_cpus_1.commit.op_class_0::SimdFloatCmp            0      0.00%     63.82% # Class of committed instruction
system.switch_cpus_1.commit.op_class_0::SimdFloatCvt            0      0.00%     63.82% # Class of committed instruction
system.switch_cpus_1.commit.op_class_0::SimdFloatDiv            0      0.00%     63.82% # Class of committed instruction
system.switch_cpus_1.commit.op_class_0::SimdFloatMisc            0      0.00%     63.82% # Class of committed instruction
system.switch_cpus_1.commit.op_class_0::SimdFloatMult            0      0.00%     63.82% # Class of committed instruction
system.switch_cpus_1.commit.op_class_0::SimdFloatMultAcc            0      0.00%     63.82% # Class of committed instruction
system.switch_cpus_1.commit.op_class_0::SimdFloatSqrt            0      0.00%     63.82% # Class of committed instruction
system.switch_cpus_1.commit.op_class_0::MemRead     41999437     19.66%     83.48% # Class of committed instruction
system.switch_cpus_1.commit.op_class_0::MemWrite     27516392     12.88%     96.36% # Class of committed instruction
system.switch_cpus_1.commit.op_class_0::FloatMemRead      6060608      2.84%     99.20% # Class of committed instruction
system.switch_cpus_1.commit.op_class_0::FloatMemWrite      1712435      0.80%    100.00% # Class of committed instruction
system.switch_cpus_1.commit.op_class_0::IprAccess            0      0.00%    100.00% # Class of committed instruction
system.switch_cpus_1.commit.op_class_0::InstPrefetch            0      0.00%    100.00% # Class of committed instruction
system.switch_cpus_1.commit.op_class_0::total    213594410                       # Class of committed instruction
system.switch_cpus_1.commit.bw_lim_events     15300762                       # number cycles where commit BW limit reached
system.switch_cpus_1.rob.rob_reads         1056897014                       # The number of ROB reads
system.switch_cpus_1.rob.rob_writes         916495649                       # The number of ROB writes
system.switch_cpus_1.timesIdled                 21015                       # Number of times that the entire CPU went into an idle state and unscheduled itself
system.switch_cpus_1.idleCycles               1301745                       # Total number of cycles that the CPU has spent unscheduled due to idling
system.switch_cpus_1.committedInsts         200000000                       # Number of Instructions Simulated
system.switch_cpus_1.committedOps           200000000                       # Number of Ops (including micro ops) Simulated
system.switch_cpus_1.cpi                     3.465708                       # CPI: Cycles Per Instruction
system.switch_cpus_1.cpi_total               3.465708                       # CPI: Total CPI of All Threads
system.switch_cpus_1.ipc                     0.288541                       # IPC: Instructions Per Cycle
system.switch_cpus_1.ipc_total               0.288541                       # IPC: Total IPC of All Threads
system.switch_cpus_1.int_regfile_reads      474394714                       # number of integer regfile reads
system.switch_cpus_1.int_regfile_writes     218477109                       # number of integer regfile writes
system.switch_cpus_1.fp_regfile_reads        26271125                       # number of floating regfile reads
system.switch_cpus_1.fp_regfile_writes       19748611                       # number of floating regfile writes
system.switch_cpus_1.misc_regfile_reads        925591                       # number of misc regfile reads
system.switch_cpus_1.misc_regfile_writes       752604                       # number of misc regfile writes
system.tol3bus.snoop_filter.tot_requests     44292609                       # Total number of requests made to the snoop filter.
system.tol3bus.snoop_filter.hit_single_requests     22146672                       # Number of requests hitting in the snoop filter with a single holder of the requested data.
system.tol3bus.snoop_filter.hit_multi_requests            0                       # Number of requests hitting in the snoop filter with multiple (>1) holders of the requested data.
system.tol3bus.snoop_filter.tot_snoops         269317                       # Total number of snoops made to the snoop filter.
system.tol3bus.snoop_filter.hit_single_snoops       269317                       # Number of snoops hitting in the snoop filter with a single holder of the requested data.
system.tol3bus.snoop_filter.hit_multi_snoops            0                       # Number of snoops hitting in the snoop filter with multiple (>1) holders of the requested data.
system.tol3bus.pwrStateResidencyTicks::UNDEFINED 129448592240922                       # Cumulative time (in ticks) in various power states
system.tol3bus.trans_dist::ReadResp          18858658                       # Transaction distribution
system.tol3bus.trans_dist::WritebackDirty     17092615                       # Transaction distribution
system.tol3bus.trans_dist::CleanEvict        19899780                       # Transaction distribution
system.tol3bus.trans_dist::UpgradeReq            1893                       # Transaction distribution
system.tol3bus.trans_dist::UpgradeResp           1893                       # Transaction distribution
system.tol3bus.trans_dist::ReadExReq          3287279                       # Transaction distribution
system.tol3bus.trans_dist::ReadExResp         3287279                       # Transaction distribution
system.tol3bus.trans_dist::ReadSharedReq     18858658                       # Transaction distribution
system.tol3bus.pkt_count_system.cpu.l2.mem_side::system.l3.cpu_side     66440439                       # Packet count per connected master and slave (bytes)
system.tol3bus.pkt_size_system.cpu.l2.mem_side::system.l3.cpu_side   2113782720                       # Cumulative packet size per connected master and slave (bytes)
system.tol3bus.snoops                        14847616                       # Total snoops (count)
system.tol3bus.snoopTraffic                 397484608                       # Total snoop traffic (bytes)
system.tol3bus.snoop_fanout::samples         36995446                       # Request fanout histogram
system.tol3bus.snoop_fanout::mean            0.007280                       # Request fanout histogram
system.tol3bus.snoop_fanout::stdev           0.085010                       # Request fanout histogram
system.tol3bus.snoop_fanout::underflows             0      0.00%      0.00% # Request fanout histogram
system.tol3bus.snoop_fanout::0               36726129     99.27%     99.27% # Request fanout histogram
system.tol3bus.snoop_fanout::1                 269317      0.73%    100.00% # Request fanout histogram
system.tol3bus.snoop_fanout::overflows              0      0.00%    100.00% # Request fanout histogram
system.tol3bus.snoop_fanout::min_value              0                       # Request fanout histogram
system.tol3bus.snoop_fanout::max_value              1                       # Request fanout histogram
system.tol3bus.snoop_fanout::total           36995446                       # Request fanout histogram
system.tol3bus.reqLayer0.occupancy        18373117491                       # Layer occupancy (ticks)
system.tol3bus.reqLayer0.utilization              0.7                       # Layer utilization (%)
system.tol3bus.respLayer0.occupancy       14749824411                       # Layer occupancy (ticks)
system.tol3bus.respLayer0.utilization             0.6                       # Layer utilization (%)

---------- End Simulation Statistics   ----------
