
---------- Begin Simulation Statistics ----------
sim_seconds                                  2.008670                       # Number of seconds simulated
sim_ticks                                2008669767552                       # Number of ticks simulated
final_tick                               75278823568254                       # Number of ticks from beginning of simulation (restored from checkpoints and never reset)
sim_freq                                 1000000000000                       # Frequency of simulated ticks
host_inst_rate                                 377486                       # Simulator instruction rate (inst/s)
host_op_rate                                   377486                       # Simulator op (including micro ops) rate (op/s)
host_tick_rate                              631870438                       # Simulator tick rate (ticks/s)
host_mem_usage                                2404688                       # Number of bytes of host memory used
host_seconds                                  3178.93                       # Real time elapsed on the host
sim_insts                                  1200000010                       # Number of instructions simulated
sim_ops                                    1200000010                       # Number of ops (including micro ops) simulated
system.voltage_domain.voltage                       1                       # Voltage in Volts
system.clk_domain.clock                          1000                       # Clock period in ticks
system.mem_ctrls0.pwrStateResidencyTicks::UNDEFINED 75278823568254                       # Cumulative time (in ticks) in various power states
system.mem_ctrls0.bytes_read::cpu.inst            128                       # Number of bytes read from this memory
system.mem_ctrls0.bytes_read::cpu.data            192                       # Number of bytes read from this memory
system.mem_ctrls0.bytes_read::switch_cpus.inst        43968                       # Number of bytes read from this memory
system.mem_ctrls0.bytes_read::switch_cpus.data    232839104                       # Number of bytes read from this memory
system.mem_ctrls0.bytes_read::switch_cpus_1.inst         3392                       # Number of bytes read from this memory
system.mem_ctrls0.bytes_read::switch_cpus_1.data     40736704                       # Number of bytes read from this memory
system.mem_ctrls0.bytes_read::total         273623488                       # Number of bytes read from this memory
system.mem_ctrls0.bytes_inst_read::cpu.inst          128                       # Number of instructions bytes read from this memory
system.mem_ctrls0.bytes_inst_read::switch_cpus.inst        43968                       # Number of instructions bytes read from this memory
system.mem_ctrls0.bytes_inst_read::switch_cpus_1.inst         3392                       # Number of instructions bytes read from this memory
system.mem_ctrls0.bytes_inst_read::total        47488                       # Number of instructions bytes read from this memory
system.mem_ctrls0.bytes_written::writebacks     87407616                       # Number of bytes written to this memory
system.mem_ctrls0.bytes_written::total       87407616                       # Number of bytes written to this memory
system.mem_ctrls0.num_reads::cpu.inst               2                       # Number of read requests responded to by this memory
system.mem_ctrls0.num_reads::cpu.data               3                       # Number of read requests responded to by this memory
system.mem_ctrls0.num_reads::switch_cpus.inst          687                       # Number of read requests responded to by this memory
system.mem_ctrls0.num_reads::switch_cpus.data      3638111                       # Number of read requests responded to by this memory
system.mem_ctrls0.num_reads::switch_cpus_1.inst           53                       # Number of read requests responded to by this memory
system.mem_ctrls0.num_reads::switch_cpus_1.data       636511                       # Number of read requests responded to by this memory
system.mem_ctrls0.num_reads::total            4275367                       # Number of read requests responded to by this memory
system.mem_ctrls0.num_writes::writebacks      1365744                       # Number of write requests responded to by this memory
system.mem_ctrls0.num_writes::total           1365744                       # Number of write requests responded to by this memory
system.mem_ctrls0.bw_read::cpu.inst                64                       # Total read bandwidth from this memory (bytes/s)
system.mem_ctrls0.bw_read::cpu.data                96                       # Total read bandwidth from this memory (bytes/s)
system.mem_ctrls0.bw_read::switch_cpus.inst        21889                       # Total read bandwidth from this memory (bytes/s)
system.mem_ctrls0.bw_read::switch_cpus.data    115917065                       # Total read bandwidth from this memory (bytes/s)
system.mem_ctrls0.bw_read::switch_cpus_1.inst         1689                       # Total read bandwidth from this memory (bytes/s)
system.mem_ctrls0.bw_read::switch_cpus_1.data     20280439                       # Total read bandwidth from this memory (bytes/s)
system.mem_ctrls0.bw_read::total            136221241                       # Total read bandwidth from this memory (bytes/s)
system.mem_ctrls0.bw_inst_read::cpu.inst           64                       # Instruction read bandwidth from this memory (bytes/s)
system.mem_ctrls0.bw_inst_read::switch_cpus.inst        21889                       # Instruction read bandwidth from this memory (bytes/s)
system.mem_ctrls0.bw_inst_read::switch_cpus_1.inst         1689                       # Instruction read bandwidth from this memory (bytes/s)
system.mem_ctrls0.bw_inst_read::total           23642                       # Instruction read bandwidth from this memory (bytes/s)
system.mem_ctrls0.bw_write::writebacks       43515175                       # Write bandwidth from this memory (bytes/s)
system.mem_ctrls0.bw_write::total            43515175                       # Write bandwidth from this memory (bytes/s)
system.mem_ctrls0.bw_total::writebacks       43515175                       # Total bandwidth to/from this memory (bytes/s)
system.mem_ctrls0.bw_total::cpu.inst               64                       # Total bandwidth to/from this memory (bytes/s)
system.mem_ctrls0.bw_total::cpu.data               96                       # Total bandwidth to/from this memory (bytes/s)
system.mem_ctrls0.bw_total::switch_cpus.inst        21889                       # Total bandwidth to/from this memory (bytes/s)
system.mem_ctrls0.bw_total::switch_cpus.data    115917065                       # Total bandwidth to/from this memory (bytes/s)
system.mem_ctrls0.bw_total::switch_cpus_1.inst         1689                       # Total bandwidth to/from this memory (bytes/s)
system.mem_ctrls0.bw_total::switch_cpus_1.data     20280439                       # Total bandwidth to/from this memory (bytes/s)
system.mem_ctrls0.bw_total::total           179736416                       # Total bandwidth to/from this memory (bytes/s)
system.mem_ctrls0.readReqs                    4275369                       # Number of read requests accepted
system.mem_ctrls0.writeReqs                   1365744                       # Number of write requests accepted
system.mem_ctrls0.readBursts                  4275369                       # Number of DRAM read bursts, including those serviced by the write queue
system.mem_ctrls0.writeBursts                 1365744                       # Number of DRAM write bursts, including those merged in the write queue
system.mem_ctrls0.bytesReadDRAM             273588224                       # Total number of bytes read from DRAM
system.mem_ctrls0.bytesReadWrQ                  35392                       # Total number of bytes read from write queue
system.mem_ctrls0.bytesWritten               87406080                       # Total number of bytes written to DRAM
system.mem_ctrls0.bytesReadSys              273623616                       # Total read bytes from the system interface side
system.mem_ctrls0.bytesWrittenSys            87407616                       # Total written bytes from the system interface side
system.mem_ctrls0.servicedByWrQ                   553                       # Number of DRAM read bursts serviced by the write queue
system.mem_ctrls0.mergedWrBursts                    0                       # Number of DRAM write bursts merged with an existing one
system.mem_ctrls0.neitherReadNorWriteReqs            0                       # Number of requests that are neither read nor write
system.mem_ctrls0.perBankRdBursts::0           273088                       # Per bank write bursts
system.mem_ctrls0.perBankRdBursts::1           268996                       # Per bank write bursts
system.mem_ctrls0.perBankRdBursts::2           266643                       # Per bank write bursts
system.mem_ctrls0.perBankRdBursts::3           266789                       # Per bank write bursts
system.mem_ctrls0.perBankRdBursts::4           266679                       # Per bank write bursts
system.mem_ctrls0.perBankRdBursts::5           268732                       # Per bank write bursts
system.mem_ctrls0.perBankRdBursts::6           268817                       # Per bank write bursts
system.mem_ctrls0.perBankRdBursts::7           269674                       # Per bank write bursts
system.mem_ctrls0.perBankRdBursts::8           270949                       # Per bank write bursts
system.mem_ctrls0.perBankRdBursts::9           267898                       # Per bank write bursts
system.mem_ctrls0.perBankRdBursts::10          263010                       # Per bank write bursts
system.mem_ctrls0.perBankRdBursts::11          260390                       # Per bank write bursts
system.mem_ctrls0.perBankRdBursts::12          259989                       # Per bank write bursts
system.mem_ctrls0.perBankRdBursts::13          264308                       # Per bank write bursts
system.mem_ctrls0.perBankRdBursts::14          269361                       # Per bank write bursts
system.mem_ctrls0.perBankRdBursts::15          269493                       # Per bank write bursts
system.mem_ctrls0.perBankWrBursts::0            88000                       # Per bank write bursts
system.mem_ctrls0.perBankWrBursts::1            86390                       # Per bank write bursts
system.mem_ctrls0.perBankWrBursts::2            85821                       # Per bank write bursts
system.mem_ctrls0.perBankWrBursts::3            86743                       # Per bank write bursts
system.mem_ctrls0.perBankWrBursts::4            87257                       # Per bank write bursts
system.mem_ctrls0.perBankWrBursts::5            87362                       # Per bank write bursts
system.mem_ctrls0.perBankWrBursts::6            85019                       # Per bank write bursts
system.mem_ctrls0.perBankWrBursts::7            84193                       # Per bank write bursts
system.mem_ctrls0.perBankWrBursts::8            84557                       # Per bank write bursts
system.mem_ctrls0.perBankWrBursts::9            84614                       # Per bank write bursts
system.mem_ctrls0.perBankWrBursts::10           84199                       # Per bank write bursts
system.mem_ctrls0.perBankWrBursts::11           83153                       # Per bank write bursts
system.mem_ctrls0.perBankWrBursts::12           82431                       # Per bank write bursts
system.mem_ctrls0.perBankWrBursts::13           83546                       # Per bank write bursts
system.mem_ctrls0.perBankWrBursts::14           86039                       # Per bank write bursts
system.mem_ctrls0.perBankWrBursts::15           86396                       # Per bank write bursts
system.mem_ctrls0.numRdRetry                        0                       # Number of times read queue was full causing retry
system.mem_ctrls0.numWrRetry                        0                       # Number of times write queue was full causing retry
system.mem_ctrls0.totGap                 2008669627359                       # Total gap between requests
system.mem_ctrls0.readPktSize::0                    0                       # Read request sizes (log2)
system.mem_ctrls0.readPktSize::1                    0                       # Read request sizes (log2)
system.mem_ctrls0.readPktSize::2                    0                       # Read request sizes (log2)
system.mem_ctrls0.readPktSize::3                    0                       # Read request sizes (log2)
system.mem_ctrls0.readPktSize::4                    0                       # Read request sizes (log2)
system.mem_ctrls0.readPktSize::5                    0                       # Read request sizes (log2)
system.mem_ctrls0.readPktSize::6              4275369                       # Read request sizes (log2)
system.mem_ctrls0.writePktSize::0                   0                       # Write request sizes (log2)
system.mem_ctrls0.writePktSize::1                   0                       # Write request sizes (log2)
system.mem_ctrls0.writePktSize::2                   0                       # Write request sizes (log2)
system.mem_ctrls0.writePktSize::3                   0                       # Write request sizes (log2)
system.mem_ctrls0.writePktSize::4                   0                       # Write request sizes (log2)
system.mem_ctrls0.writePktSize::5                   0                       # Write request sizes (log2)
system.mem_ctrls0.writePktSize::6             1365744                       # Write request sizes (log2)
system.mem_ctrls0.rdQLenPdf::0                4107453                       # What read queue length does an incoming req see
system.mem_ctrls0.rdQLenPdf::1                 135491                       # What read queue length does an incoming req see
system.mem_ctrls0.rdQLenPdf::2                  29718                       # What read queue length does an incoming req see
system.mem_ctrls0.rdQLenPdf::3                   2154                       # What read queue length does an incoming req see
system.mem_ctrls0.rdQLenPdf::4                      0                       # What read queue length does an incoming req see
system.mem_ctrls0.rdQLenPdf::5                      0                       # What read queue length does an incoming req see
system.mem_ctrls0.rdQLenPdf::6                      0                       # What read queue length does an incoming req see
system.mem_ctrls0.rdQLenPdf::7                      0                       # What read queue length does an incoming req see
system.mem_ctrls0.rdQLenPdf::8                      0                       # What read queue length does an incoming req see
system.mem_ctrls0.rdQLenPdf::9                      0                       # What read queue length does an incoming req see
system.mem_ctrls0.rdQLenPdf::10                     0                       # What read queue length does an incoming req see
system.mem_ctrls0.rdQLenPdf::11                     0                       # What read queue length does an incoming req see
system.mem_ctrls0.rdQLenPdf::12                     0                       # What read queue length does an incoming req see
system.mem_ctrls0.rdQLenPdf::13                     0                       # What read queue length does an incoming req see
system.mem_ctrls0.rdQLenPdf::14                     0                       # What read queue length does an incoming req see
system.mem_ctrls0.rdQLenPdf::15                     0                       # What read queue length does an incoming req see
system.mem_ctrls0.rdQLenPdf::16                     0                       # What read queue length does an incoming req see
system.mem_ctrls0.rdQLenPdf::17                     0                       # What read queue length does an incoming req see
system.mem_ctrls0.rdQLenPdf::18                     0                       # What read queue length does an incoming req see
system.mem_ctrls0.rdQLenPdf::19                     0                       # What read queue length does an incoming req see
system.mem_ctrls0.rdQLenPdf::20                     0                       # What read queue length does an incoming req see
system.mem_ctrls0.rdQLenPdf::21                     0                       # What read queue length does an incoming req see
system.mem_ctrls0.rdQLenPdf::22                     0                       # What read queue length does an incoming req see
system.mem_ctrls0.rdQLenPdf::23                     0                       # What read queue length does an incoming req see
system.mem_ctrls0.rdQLenPdf::24                     0                       # What read queue length does an incoming req see
system.mem_ctrls0.rdQLenPdf::25                     0                       # What read queue length does an incoming req see
system.mem_ctrls0.rdQLenPdf::26                     0                       # What read queue length does an incoming req see
system.mem_ctrls0.rdQLenPdf::27                     0                       # What read queue length does an incoming req see
system.mem_ctrls0.rdQLenPdf::28                     0                       # What read queue length does an incoming req see
system.mem_ctrls0.rdQLenPdf::29                     0                       # What read queue length does an incoming req see
system.mem_ctrls0.rdQLenPdf::30                     0                       # What read queue length does an incoming req see
system.mem_ctrls0.rdQLenPdf::31                     0                       # What read queue length does an incoming req see
system.mem_ctrls0.wrQLenPdf::0                      2                       # What write queue length does an incoming req see
system.mem_ctrls0.wrQLenPdf::1                      2                       # What write queue length does an incoming req see
system.mem_ctrls0.wrQLenPdf::2                      2                       # What write queue length does an incoming req see
system.mem_ctrls0.wrQLenPdf::3                      2                       # What write queue length does an incoming req see
system.mem_ctrls0.wrQLenPdf::4                      2                       # What write queue length does an incoming req see
system.mem_ctrls0.wrQLenPdf::5                      2                       # What write queue length does an incoming req see
system.mem_ctrls0.wrQLenPdf::6                      2                       # What write queue length does an incoming req see
system.mem_ctrls0.wrQLenPdf::7                      2                       # What write queue length does an incoming req see
system.mem_ctrls0.wrQLenPdf::8                      2                       # What write queue length does an incoming req see
system.mem_ctrls0.wrQLenPdf::9                      2                       # What write queue length does an incoming req see
system.mem_ctrls0.wrQLenPdf::10                     2                       # What write queue length does an incoming req see
system.mem_ctrls0.wrQLenPdf::11                     2                       # What write queue length does an incoming req see
system.mem_ctrls0.wrQLenPdf::12                     2                       # What write queue length does an incoming req see
system.mem_ctrls0.wrQLenPdf::13                     2                       # What write queue length does an incoming req see
system.mem_ctrls0.wrQLenPdf::14                     2                       # What write queue length does an incoming req see
system.mem_ctrls0.wrQLenPdf::15                 42534                       # What write queue length does an incoming req see
system.mem_ctrls0.wrQLenPdf::16                 44321                       # What write queue length does an incoming req see
system.mem_ctrls0.wrQLenPdf::17                 75376                       # What write queue length does an incoming req see
system.mem_ctrls0.wrQLenPdf::18                 79329                       # What write queue length does an incoming req see
system.mem_ctrls0.wrQLenPdf::19                 80064                       # What write queue length does an incoming req see
system.mem_ctrls0.wrQLenPdf::20                 80185                       # What write queue length does an incoming req see
system.mem_ctrls0.wrQLenPdf::21                 80254                       # What write queue length does an incoming req see
system.mem_ctrls0.wrQLenPdf::22                 80248                       # What write queue length does an incoming req see
system.mem_ctrls0.wrQLenPdf::23                 80389                       # What write queue length does an incoming req see
system.mem_ctrls0.wrQLenPdf::24                 80502                       # What write queue length does an incoming req see
system.mem_ctrls0.wrQLenPdf::25                 81061                       # What write queue length does an incoming req see
system.mem_ctrls0.wrQLenPdf::26                 80692                       # What write queue length does an incoming req see
system.mem_ctrls0.wrQLenPdf::27                 80409                       # What write queue length does an incoming req see
system.mem_ctrls0.wrQLenPdf::28                 80291                       # What write queue length does an incoming req see
system.mem_ctrls0.wrQLenPdf::29                 80221                       # What write queue length does an incoming req see
system.mem_ctrls0.wrQLenPdf::30                 80177                       # What write queue length does an incoming req see
system.mem_ctrls0.wrQLenPdf::31                 79837                       # What write queue length does an incoming req see
system.mem_ctrls0.wrQLenPdf::32                 79747                       # What write queue length does an incoming req see
system.mem_ctrls0.wrQLenPdf::33                    71                       # What write queue length does an incoming req see
system.mem_ctrls0.wrQLenPdf::34                     6                       # What write queue length does an incoming req see
system.mem_ctrls0.wrQLenPdf::35                     0                       # What write queue length does an incoming req see
system.mem_ctrls0.wrQLenPdf::36                     0                       # What write queue length does an incoming req see
system.mem_ctrls0.wrQLenPdf::37                     0                       # What write queue length does an incoming req see
system.mem_ctrls0.wrQLenPdf::38                     0                       # What write queue length does an incoming req see
system.mem_ctrls0.wrQLenPdf::39                     0                       # What write queue length does an incoming req see
system.mem_ctrls0.wrQLenPdf::40                     0                       # What write queue length does an incoming req see
system.mem_ctrls0.wrQLenPdf::41                     0                       # What write queue length does an incoming req see
system.mem_ctrls0.wrQLenPdf::42                     0                       # What write queue length does an incoming req see
system.mem_ctrls0.wrQLenPdf::43                     0                       # What write queue length does an incoming req see
system.mem_ctrls0.wrQLenPdf::44                     0                       # What write queue length does an incoming req see
system.mem_ctrls0.wrQLenPdf::45                     0                       # What write queue length does an incoming req see
system.mem_ctrls0.wrQLenPdf::46                     0                       # What write queue length does an incoming req see
system.mem_ctrls0.wrQLenPdf::47                     0                       # What write queue length does an incoming req see
system.mem_ctrls0.wrQLenPdf::48                     0                       # What write queue length does an incoming req see
system.mem_ctrls0.wrQLenPdf::49                     0                       # What write queue length does an incoming req see
system.mem_ctrls0.wrQLenPdf::50                     0                       # What write queue length does an incoming req see
system.mem_ctrls0.wrQLenPdf::51                     0                       # What write queue length does an incoming req see
system.mem_ctrls0.wrQLenPdf::52                     0                       # What write queue length does an incoming req see
system.mem_ctrls0.wrQLenPdf::53                     0                       # What write queue length does an incoming req see
system.mem_ctrls0.wrQLenPdf::54                     0                       # What write queue length does an incoming req see
system.mem_ctrls0.wrQLenPdf::55                     0                       # What write queue length does an incoming req see
system.mem_ctrls0.wrQLenPdf::56                     0                       # What write queue length does an incoming req see
system.mem_ctrls0.wrQLenPdf::57                     0                       # What write queue length does an incoming req see
system.mem_ctrls0.wrQLenPdf::58                     0                       # What write queue length does an incoming req see
system.mem_ctrls0.wrQLenPdf::59                     0                       # What write queue length does an incoming req see
system.mem_ctrls0.wrQLenPdf::60                     0                       # What write queue length does an incoming req see
system.mem_ctrls0.wrQLenPdf::61                     0                       # What write queue length does an incoming req see
system.mem_ctrls0.wrQLenPdf::62                     0                       # What write queue length does an incoming req see
system.mem_ctrls0.wrQLenPdf::63                     0                       # What write queue length does an incoming req see
system.mem_ctrls0.bytesPerActivate::samples      2635675                       # Bytes accessed per row activation
system.mem_ctrls0.bytesPerActivate::mean   136.963727                       # Bytes accessed per row activation
system.mem_ctrls0.bytesPerActivate::gmean   105.372189                       # Bytes accessed per row activation
system.mem_ctrls0.bytesPerActivate::stdev   132.158394                       # Bytes accessed per row activation
system.mem_ctrls0.bytesPerActivate::0-127      1408892     53.45%     53.45% # Bytes accessed per row activation
system.mem_ctrls0.bytesPerActivate::128-255       902662     34.25%     87.70% # Bytes accessed per row activation
system.mem_ctrls0.bytesPerActivate::256-383       118298      4.49%     92.19% # Bytes accessed per row activation
system.mem_ctrls0.bytesPerActivate::384-511        79987      3.03%     95.23% # Bytes accessed per row activation
system.mem_ctrls0.bytesPerActivate::512-639        77886      2.96%     98.18% # Bytes accessed per row activation
system.mem_ctrls0.bytesPerActivate::640-767        32757      1.24%     99.42% # Bytes accessed per row activation
system.mem_ctrls0.bytesPerActivate::768-895         8237      0.31%     99.74% # Bytes accessed per row activation
system.mem_ctrls0.bytesPerActivate::896-1023         1769      0.07%     99.80% # Bytes accessed per row activation
system.mem_ctrls0.bytesPerActivate::1024-1151         5187      0.20%    100.00% # Bytes accessed per row activation
system.mem_ctrls0.bytesPerActivate::total      2635675                       # Bytes accessed per row activation
system.mem_ctrls0.rdPerTurnAround::samples        79694                       # Reads before turning the bus around for writes
system.mem_ctrls0.rdPerTurnAround::mean     53.639873                       # Reads before turning the bus around for writes
system.mem_ctrls0.rdPerTurnAround::gmean    48.016305                       # Reads before turning the bus around for writes
system.mem_ctrls0.rdPerTurnAround::stdev   114.703875                       # Reads before turning the bus around for writes
system.mem_ctrls0.rdPerTurnAround::0-1023        79693    100.00%    100.00% # Reads before turning the bus around for writes
system.mem_ctrls0.rdPerTurnAround::30720-31743            1      0.00%    100.00% # Reads before turning the bus around for writes
system.mem_ctrls0.rdPerTurnAround::total        79694                       # Reads before turning the bus around for writes
system.mem_ctrls0.wrPerTurnAround::samples        79694                       # Writes before turning the bus around for reads
system.mem_ctrls0.wrPerTurnAround::mean     17.137049                       # Writes before turning the bus around for reads
system.mem_ctrls0.wrPerTurnAround::gmean    17.104585                       # Writes before turning the bus around for reads
system.mem_ctrls0.wrPerTurnAround::stdev     1.054446                       # Writes before turning the bus around for reads
system.mem_ctrls0.wrPerTurnAround::16           35471     44.51%     44.51% # Writes before turning the bus around for reads
system.mem_ctrls0.wrPerTurnAround::17            1483      1.86%     46.37% # Writes before turning the bus around for reads
system.mem_ctrls0.wrPerTurnAround::18           39472     49.53%     95.90% # Writes before turning the bus around for reads
system.mem_ctrls0.wrPerTurnAround::19            2937      3.69%     99.58% # Writes before turning the bus around for reads
system.mem_ctrls0.wrPerTurnAround::20             289      0.36%     99.95% # Writes before turning the bus around for reads
system.mem_ctrls0.wrPerTurnAround::21              36      0.05%     99.99% # Writes before turning the bus around for reads
system.mem_ctrls0.wrPerTurnAround::22               4      0.01%    100.00% # Writes before turning the bus around for reads
system.mem_ctrls0.wrPerTurnAround::23               1      0.00%    100.00% # Writes before turning the bus around for reads
system.mem_ctrls0.wrPerTurnAround::27               1      0.00%    100.00% # Writes before turning the bus around for reads
system.mem_ctrls0.wrPerTurnAround::total        79694                       # Writes before turning the bus around for reads
system.mem_ctrls0.totQLat                 96731887901                       # Total ticks spent queuing
system.mem_ctrls0.totMemAccLat           176884687901                       # Total ticks spent from burst creation until serviced by the DRAM
system.mem_ctrls0.totBusLat               21374080000                       # Total ticks spent in databus transfers
system.mem_ctrls0.avgQLat                    22628.32                       # Average queueing delay per DRAM burst
system.mem_ctrls0.avgBusLat                   5000.00                       # Average bus latency per DRAM burst
system.mem_ctrls0.avgMemAccLat               41378.32                       # Average memory access latency per DRAM burst
system.mem_ctrls0.avgRdBW                      136.20                       # Average DRAM read bandwidth in MiByte/s
system.mem_ctrls0.avgWrBW                       43.51                       # Average achieved write bandwidth in MiByte/s
system.mem_ctrls0.avgRdBWSys                   136.22                       # Average system read bandwidth in MiByte/s
system.mem_ctrls0.avgWrBWSys                    43.52                       # Average system write bandwidth in MiByte/s
system.mem_ctrls0.peakBW                     12800.00                       # Theoretical peak bandwidth in MiByte/s
system.mem_ctrls0.busUtil                        1.40                       # Data bus utilization in percentage
system.mem_ctrls0.busUtilRead                    1.06                       # Data bus utilization in percentage for reads
system.mem_ctrls0.busUtilWrite                   0.34                       # Data bus utilization in percentage for writes
system.mem_ctrls0.avgRdQLen                      1.01                       # Average read queue length when enqueuing
system.mem_ctrls0.avgWrQLen                     24.53                       # Average write queue length when enqueuing
system.mem_ctrls0.readRowHits                 2588357                       # Number of row buffer hits during reads
system.mem_ctrls0.writeRowHits                 416493                       # Number of row buffer hits during writes
system.mem_ctrls0.readRowHitRate                60.55                       # Row buffer hit rate for reads
system.mem_ctrls0.writeRowHitRate               30.50                       # Row buffer hit rate for writes
system.mem_ctrls0.avgGap                    356076.83                       # Average gap between requests
system.mem_ctrls0.pageHitRate                   53.27                       # Row buffer hit rate, read and write combined
system.mem_ctrls0_0.actEnergy              9476208000                       # Energy for activate commands per rank (pJ)
system.mem_ctrls0_0.preEnergy              5036701230                       # Energy for precharge commands per rank (pJ)
system.mem_ctrls0_0.readEnergy            15346844520                       # Energy for read commands per rank (pJ)
system.mem_ctrls0_0.writeEnergy            3605897700                       # Energy for write commands per rank (pJ)
system.mem_ctrls0_0.refreshEnergy        156125935680.000031                       # Energy for refresh commands per rank (pJ)
system.mem_ctrls0_0.actBackEnergy         96397770150                       # Energy for active background per rank (pJ)
system.mem_ctrls0_0.preBackEnergy          5630054400                       # Energy for precharge background per rank (pJ)
system.mem_ctrls0_0.actPowerDownEnergy   601157596500                       # Energy for active power-down per rank (pJ)
system.mem_ctrls0_0.prePowerDownEnergy   120020313120                       # Energy for precharge power-down per rank (pJ)
system.mem_ctrls0_0.selfRefreshEnergy     45629522355                       # Energy for self refresh per rank (pJ)
system.mem_ctrls0_0.totalEnergy          1058460666495                       # Total energy per rank (pJ)
system.mem_ctrls0_0.averagePower           526.946080                       # Core power per rank (mW)
system.mem_ctrls0_0.totalIdleTime        1782534331533                       # Total Idle time Per DRAM Rank
system.mem_ctrls0_0.memoryStateTime::IDLE   5881160334                       # Time in different power states
system.mem_ctrls0_0.memoryStateTime::REF  66146668000                       # Time in different power states
system.mem_ctrls0_0.memoryStateTime::SREF 151653355149                       # Time in different power states
system.mem_ctrls0_0.memoryStateTime::PRE_PDN 312558976759                       # Time in different power states
system.mem_ctrls0_0.memoryStateTime::ACT 154107607685                       # Time in different power states
system.mem_ctrls0_0.memoryStateTime::ACT_PDN 1318321999625                       # Time in different power states
system.mem_ctrls0_1.actEnergy              9342590040                       # Energy for activate commands per rank (pJ)
system.mem_ctrls0_1.preEnergy              4965685395                       # Energy for precharge commands per rank (pJ)
system.mem_ctrls0_1.readEnergy            15175334580                       # Energy for read commands per rank (pJ)
system.mem_ctrls0_1.writeEnergy            3523160700                       # Energy for write commands per rank (pJ)
system.mem_ctrls0_1.refreshEnergy        155637911520.000031                       # Energy for refresh commands per rank (pJ)
system.mem_ctrls0_1.actBackEnergy         96843725610                       # Energy for active background per rank (pJ)
system.mem_ctrls0_1.preBackEnergy          5645451840                       # Energy for precharge background per rank (pJ)
system.mem_ctrls0_1.actPowerDownEnergy   596009711610                       # Energy for active power-down per rank (pJ)
system.mem_ctrls0_1.prePowerDownEnergy   120526266240                       # Energy for precharge power-down per rank (pJ)
system.mem_ctrls0_1.selfRefreshEnergy     47990414520                       # Energy for self refresh per rank (pJ)
system.mem_ctrls0_1.totalEnergy          1055695754145                       # Total energy per rank (pJ)
system.mem_ctrls0_1.averagePower           525.569590                       # Core power per rank (mW)
system.mem_ctrls0_1.totalIdleTime        1781515627221                       # Total Idle time Per DRAM Rank
system.mem_ctrls0_1.memoryStateTime::IDLE   5957728307                       # Time in different power states
system.mem_ctrls0_1.memoryStateTime::REF  65942712000                       # Time in different power states
system.mem_ctrls0_1.memoryStateTime::SREF 160603218080                       # Time in different power states
system.mem_ctrls0_1.memoryStateTime::PRE_PDN 313872831915                       # Time in different power states
system.mem_ctrls0_1.memoryStateTime::ACT 155253700024                       # Time in different power states
system.mem_ctrls0_1.memoryStateTime::ACT_PDN 1307039577226                       # Time in different power states
system.mem_ctrls1.pwrStateResidencyTicks::UNDEFINED 75278823568254                       # Cumulative time (in ticks) in various power states
system.mem_ctrls1.bytes_read::cpu.inst            128                       # Number of bytes read from this memory
system.mem_ctrls1.bytes_read::cpu.data            192                       # Number of bytes read from this memory
system.mem_ctrls1.bytes_read::switch_cpus.inst        43840                       # Number of bytes read from this memory
system.mem_ctrls1.bytes_read::switch_cpus.data    232823360                       # Number of bytes read from this memory
system.mem_ctrls1.bytes_read::switch_cpus_1.inst         3200                       # Number of bytes read from this memory
system.mem_ctrls1.bytes_read::switch_cpus_1.data     40708992                       # Number of bytes read from this memory
system.mem_ctrls1.bytes_read::total         273579712                       # Number of bytes read from this memory
system.mem_ctrls1.bytes_inst_read::cpu.inst          128                       # Number of instructions bytes read from this memory
system.mem_ctrls1.bytes_inst_read::switch_cpus.inst        43840                       # Number of instructions bytes read from this memory
system.mem_ctrls1.bytes_inst_read::switch_cpus_1.inst         3200                       # Number of instructions bytes read from this memory
system.mem_ctrls1.bytes_inst_read::total        47168                       # Number of instructions bytes read from this memory
system.mem_ctrls1.bytes_written::writebacks     87405440                       # Number of bytes written to this memory
system.mem_ctrls1.bytes_written::total       87405440                       # Number of bytes written to this memory
system.mem_ctrls1.num_reads::cpu.inst               2                       # Number of read requests responded to by this memory
system.mem_ctrls1.num_reads::cpu.data               3                       # Number of read requests responded to by this memory
system.mem_ctrls1.num_reads::switch_cpus.inst          685                       # Number of read requests responded to by this memory
system.mem_ctrls1.num_reads::switch_cpus.data      3637865                       # Number of read requests responded to by this memory
system.mem_ctrls1.num_reads::switch_cpus_1.inst           50                       # Number of read requests responded to by this memory
system.mem_ctrls1.num_reads::switch_cpus_1.data       636078                       # Number of read requests responded to by this memory
system.mem_ctrls1.num_reads::total            4274683                       # Number of read requests responded to by this memory
system.mem_ctrls1.num_writes::writebacks      1365710                       # Number of write requests responded to by this memory
system.mem_ctrls1.num_writes::total           1365710                       # Number of write requests responded to by this memory
system.mem_ctrls1.bw_read::cpu.inst                64                       # Total read bandwidth from this memory (bytes/s)
system.mem_ctrls1.bw_read::cpu.data                96                       # Total read bandwidth from this memory (bytes/s)
system.mem_ctrls1.bw_read::switch_cpus.inst        21825                       # Total read bandwidth from this memory (bytes/s)
system.mem_ctrls1.bw_read::switch_cpus.data    115909227                       # Total read bandwidth from this memory (bytes/s)
system.mem_ctrls1.bw_read::switch_cpus_1.inst         1593                       # Total read bandwidth from this memory (bytes/s)
system.mem_ctrls1.bw_read::switch_cpus_1.data     20266642                       # Total read bandwidth from this memory (bytes/s)
system.mem_ctrls1.bw_read::total            136199447                       # Total read bandwidth from this memory (bytes/s)
system.mem_ctrls1.bw_inst_read::cpu.inst           64                       # Instruction read bandwidth from this memory (bytes/s)
system.mem_ctrls1.bw_inst_read::switch_cpus.inst        21825                       # Instruction read bandwidth from this memory (bytes/s)
system.mem_ctrls1.bw_inst_read::switch_cpus_1.inst         1593                       # Instruction read bandwidth from this memory (bytes/s)
system.mem_ctrls1.bw_inst_read::total           23482                       # Instruction read bandwidth from this memory (bytes/s)
system.mem_ctrls1.bw_write::writebacks       43514091                       # Write bandwidth from this memory (bytes/s)
system.mem_ctrls1.bw_write::total            43514091                       # Write bandwidth from this memory (bytes/s)
system.mem_ctrls1.bw_total::writebacks       43514091                       # Total bandwidth to/from this memory (bytes/s)
system.mem_ctrls1.bw_total::cpu.inst               64                       # Total bandwidth to/from this memory (bytes/s)
system.mem_ctrls1.bw_total::cpu.data               96                       # Total bandwidth to/from this memory (bytes/s)
system.mem_ctrls1.bw_total::switch_cpus.inst        21825                       # Total bandwidth to/from this memory (bytes/s)
system.mem_ctrls1.bw_total::switch_cpus.data    115909227                       # Total bandwidth to/from this memory (bytes/s)
system.mem_ctrls1.bw_total::switch_cpus_1.inst         1593                       # Total bandwidth to/from this memory (bytes/s)
system.mem_ctrls1.bw_total::switch_cpus_1.data     20266642                       # Total bandwidth to/from this memory (bytes/s)
system.mem_ctrls1.bw_total::total           179713539                       # Total bandwidth to/from this memory (bytes/s)
system.mem_ctrls1.readReqs                    4274683                       # Number of read requests accepted
system.mem_ctrls1.writeReqs                   1365710                       # Number of write requests accepted
system.mem_ctrls1.readBursts                  4274683                       # Number of DRAM read bursts, including those serviced by the write queue
system.mem_ctrls1.writeBursts                 1365710                       # Number of DRAM write bursts, including those merged in the write queue
system.mem_ctrls1.bytesReadDRAM             273539712                       # Total number of bytes read from DRAM
system.mem_ctrls1.bytesReadWrQ                  40000                       # Total number of bytes read from write queue
system.mem_ctrls1.bytesWritten               87403904                       # Total number of bytes written to DRAM
system.mem_ctrls1.bytesReadSys              273579712                       # Total read bytes from the system interface side
system.mem_ctrls1.bytesWrittenSys            87405440                       # Total written bytes from the system interface side
system.mem_ctrls1.servicedByWrQ                   625                       # Number of DRAM read bursts serviced by the write queue
system.mem_ctrls1.mergedWrBursts                    0                       # Number of DRAM write bursts merged with an existing one
system.mem_ctrls1.neitherReadNorWriteReqs            0                       # Number of requests that are neither read nor write
system.mem_ctrls1.perBankRdBursts::0           272870                       # Per bank write bursts
system.mem_ctrls1.perBankRdBursts::1           269232                       # Per bank write bursts
system.mem_ctrls1.perBankRdBursts::2           266401                       # Per bank write bursts
system.mem_ctrls1.perBankRdBursts::3           266897                       # Per bank write bursts
system.mem_ctrls1.perBankRdBursts::4           266665                       # Per bank write bursts
system.mem_ctrls1.perBankRdBursts::5           268487                       # Per bank write bursts
system.mem_ctrls1.perBankRdBursts::6           268727                       # Per bank write bursts
system.mem_ctrls1.perBankRdBursts::7           269556                       # Per bank write bursts
system.mem_ctrls1.perBankRdBursts::8           270912                       # Per bank write bursts
system.mem_ctrls1.perBankRdBursts::9           268098                       # Per bank write bursts
system.mem_ctrls1.perBankRdBursts::10          262919                       # Per bank write bursts
system.mem_ctrls1.perBankRdBursts::11          260347                       # Per bank write bursts
system.mem_ctrls1.perBankRdBursts::12          259859                       # Per bank write bursts
system.mem_ctrls1.perBankRdBursts::13          264147                       # Per bank write bursts
system.mem_ctrls1.perBankRdBursts::14          269337                       # Per bank write bursts
system.mem_ctrls1.perBankRdBursts::15          269604                       # Per bank write bursts
system.mem_ctrls1.perBankWrBursts::0            87875                       # Per bank write bursts
system.mem_ctrls1.perBankWrBursts::1            86407                       # Per bank write bursts
system.mem_ctrls1.perBankWrBursts::2            85751                       # Per bank write bursts
system.mem_ctrls1.perBankWrBursts::3            86755                       # Per bank write bursts
system.mem_ctrls1.perBankWrBursts::4            87258                       # Per bank write bursts
system.mem_ctrls1.perBankWrBursts::5            87303                       # Per bank write bursts
system.mem_ctrls1.perBankWrBursts::6            84862                       # Per bank write bursts
system.mem_ctrls1.perBankWrBursts::7            84118                       # Per bank write bursts
system.mem_ctrls1.perBankWrBursts::8            84567                       # Per bank write bursts
system.mem_ctrls1.perBankWrBursts::9            84779                       # Per bank write bursts
system.mem_ctrls1.perBankWrBursts::10           84217                       # Per bank write bursts
system.mem_ctrls1.perBankWrBursts::11           83144                       # Per bank write bursts
system.mem_ctrls1.perBankWrBursts::12           82492                       # Per bank write bursts
system.mem_ctrls1.perBankWrBursts::13           83536                       # Per bank write bursts
system.mem_ctrls1.perBankWrBursts::14           86077                       # Per bank write bursts
system.mem_ctrls1.perBankWrBursts::15           86545                       # Per bank write bursts
system.mem_ctrls1.numRdRetry                        0                       # Number of times read queue was full causing retry
system.mem_ctrls1.numWrRetry                        0                       # Number of times write queue was full causing retry
system.mem_ctrls1.totGap                 2008669695291                       # Total gap between requests
system.mem_ctrls1.readPktSize::0                    0                       # Read request sizes (log2)
system.mem_ctrls1.readPktSize::1                    0                       # Read request sizes (log2)
system.mem_ctrls1.readPktSize::2                    0                       # Read request sizes (log2)
system.mem_ctrls1.readPktSize::3                    0                       # Read request sizes (log2)
system.mem_ctrls1.readPktSize::4                    0                       # Read request sizes (log2)
system.mem_ctrls1.readPktSize::5                    0                       # Read request sizes (log2)
system.mem_ctrls1.readPktSize::6              4274683                       # Read request sizes (log2)
system.mem_ctrls1.writePktSize::0                   0                       # Write request sizes (log2)
system.mem_ctrls1.writePktSize::1                   0                       # Write request sizes (log2)
system.mem_ctrls1.writePktSize::2                   0                       # Write request sizes (log2)
system.mem_ctrls1.writePktSize::3                   0                       # Write request sizes (log2)
system.mem_ctrls1.writePktSize::4                   0                       # Write request sizes (log2)
system.mem_ctrls1.writePktSize::5                   0                       # Write request sizes (log2)
system.mem_ctrls1.writePktSize::6             1365710                       # Write request sizes (log2)
system.mem_ctrls1.rdQLenPdf::0                4106912                       # What read queue length does an incoming req see
system.mem_ctrls1.rdQLenPdf::1                 135163                       # What read queue length does an incoming req see
system.mem_ctrls1.rdQLenPdf::2                  29805                       # What read queue length does an incoming req see
system.mem_ctrls1.rdQLenPdf::3                   2178                       # What read queue length does an incoming req see
system.mem_ctrls1.rdQLenPdf::4                      0                       # What read queue length does an incoming req see
system.mem_ctrls1.rdQLenPdf::5                      0                       # What read queue length does an incoming req see
system.mem_ctrls1.rdQLenPdf::6                      0                       # What read queue length does an incoming req see
system.mem_ctrls1.rdQLenPdf::7                      0                       # What read queue length does an incoming req see
system.mem_ctrls1.rdQLenPdf::8                      0                       # What read queue length does an incoming req see
system.mem_ctrls1.rdQLenPdf::9                      0                       # What read queue length does an incoming req see
system.mem_ctrls1.rdQLenPdf::10                     0                       # What read queue length does an incoming req see
system.mem_ctrls1.rdQLenPdf::11                     0                       # What read queue length does an incoming req see
system.mem_ctrls1.rdQLenPdf::12                     0                       # What read queue length does an incoming req see
system.mem_ctrls1.rdQLenPdf::13                     0                       # What read queue length does an incoming req see
system.mem_ctrls1.rdQLenPdf::14                     0                       # What read queue length does an incoming req see
system.mem_ctrls1.rdQLenPdf::15                     0                       # What read queue length does an incoming req see
system.mem_ctrls1.rdQLenPdf::16                     0                       # What read queue length does an incoming req see
system.mem_ctrls1.rdQLenPdf::17                     0                       # What read queue length does an incoming req see
system.mem_ctrls1.rdQLenPdf::18                     0                       # What read queue length does an incoming req see
system.mem_ctrls1.rdQLenPdf::19                     0                       # What read queue length does an incoming req see
system.mem_ctrls1.rdQLenPdf::20                     0                       # What read queue length does an incoming req see
system.mem_ctrls1.rdQLenPdf::21                     0                       # What read queue length does an incoming req see
system.mem_ctrls1.rdQLenPdf::22                     0                       # What read queue length does an incoming req see
system.mem_ctrls1.rdQLenPdf::23                     0                       # What read queue length does an incoming req see
system.mem_ctrls1.rdQLenPdf::24                     0                       # What read queue length does an incoming req see
system.mem_ctrls1.rdQLenPdf::25                     0                       # What read queue length does an incoming req see
system.mem_ctrls1.rdQLenPdf::26                     0                       # What read queue length does an incoming req see
system.mem_ctrls1.rdQLenPdf::27                     0                       # What read queue length does an incoming req see
system.mem_ctrls1.rdQLenPdf::28                     0                       # What read queue length does an incoming req see
system.mem_ctrls1.rdQLenPdf::29                     0                       # What read queue length does an incoming req see
system.mem_ctrls1.rdQLenPdf::30                     0                       # What read queue length does an incoming req see
system.mem_ctrls1.rdQLenPdf::31                     0                       # What read queue length does an incoming req see
system.mem_ctrls1.wrQLenPdf::0                      2                       # What write queue length does an incoming req see
system.mem_ctrls1.wrQLenPdf::1                      2                       # What write queue length does an incoming req see
system.mem_ctrls1.wrQLenPdf::2                      2                       # What write queue length does an incoming req see
system.mem_ctrls1.wrQLenPdf::3                      2                       # What write queue length does an incoming req see
system.mem_ctrls1.wrQLenPdf::4                      2                       # What write queue length does an incoming req see
system.mem_ctrls1.wrQLenPdf::5                      2                       # What write queue length does an incoming req see
system.mem_ctrls1.wrQLenPdf::6                      2                       # What write queue length does an incoming req see
system.mem_ctrls1.wrQLenPdf::7                      2                       # What write queue length does an incoming req see
system.mem_ctrls1.wrQLenPdf::8                      2                       # What write queue length does an incoming req see
system.mem_ctrls1.wrQLenPdf::9                      2                       # What write queue length does an incoming req see
system.mem_ctrls1.wrQLenPdf::10                     2                       # What write queue length does an incoming req see
system.mem_ctrls1.wrQLenPdf::11                     2                       # What write queue length does an incoming req see
system.mem_ctrls1.wrQLenPdf::12                     2                       # What write queue length does an incoming req see
system.mem_ctrls1.wrQLenPdf::13                     2                       # What write queue length does an incoming req see
system.mem_ctrls1.wrQLenPdf::14                     2                       # What write queue length does an incoming req see
system.mem_ctrls1.wrQLenPdf::15                 42528                       # What write queue length does an incoming req see
system.mem_ctrls1.wrQLenPdf::16                 44247                       # What write queue length does an incoming req see
system.mem_ctrls1.wrQLenPdf::17                 75305                       # What write queue length does an incoming req see
system.mem_ctrls1.wrQLenPdf::18                 79349                       # What write queue length does an incoming req see
system.mem_ctrls1.wrQLenPdf::19                 80091                       # What write queue length does an incoming req see
system.mem_ctrls1.wrQLenPdf::20                 80205                       # What write queue length does an incoming req see
system.mem_ctrls1.wrQLenPdf::21                 80212                       # What write queue length does an incoming req see
system.mem_ctrls1.wrQLenPdf::22                 80262                       # What write queue length does an incoming req see
system.mem_ctrls1.wrQLenPdf::23                 80322                       # What write queue length does an incoming req see
system.mem_ctrls1.wrQLenPdf::24                 80487                       # What write queue length does an incoming req see
system.mem_ctrls1.wrQLenPdf::25                 81138                       # What write queue length does an incoming req see
system.mem_ctrls1.wrQLenPdf::26                 80766                       # What write queue length does an incoming req see
system.mem_ctrls1.wrQLenPdf::27                 80447                       # What write queue length does an incoming req see
system.mem_ctrls1.wrQLenPdf::28                 80310                       # What write queue length does an incoming req see
system.mem_ctrls1.wrQLenPdf::29                 80194                       # What write queue length does an incoming req see
system.mem_ctrls1.wrQLenPdf::30                 80136                       # What write queue length does an incoming req see
system.mem_ctrls1.wrQLenPdf::31                 79833                       # What write queue length does an incoming req see
system.mem_ctrls1.wrQLenPdf::32                 79759                       # What write queue length does an incoming req see
system.mem_ctrls1.wrQLenPdf::33                    79                       # What write queue length does an incoming req see
system.mem_ctrls1.wrQLenPdf::34                     9                       # What write queue length does an incoming req see
system.mem_ctrls1.wrQLenPdf::35                     1                       # What write queue length does an incoming req see
system.mem_ctrls1.wrQLenPdf::36                     0                       # What write queue length does an incoming req see
system.mem_ctrls1.wrQLenPdf::37                     0                       # What write queue length does an incoming req see
system.mem_ctrls1.wrQLenPdf::38                     0                       # What write queue length does an incoming req see
system.mem_ctrls1.wrQLenPdf::39                     0                       # What write queue length does an incoming req see
system.mem_ctrls1.wrQLenPdf::40                     0                       # What write queue length does an incoming req see
system.mem_ctrls1.wrQLenPdf::41                     0                       # What write queue length does an incoming req see
system.mem_ctrls1.wrQLenPdf::42                     0                       # What write queue length does an incoming req see
system.mem_ctrls1.wrQLenPdf::43                     0                       # What write queue length does an incoming req see
system.mem_ctrls1.wrQLenPdf::44                     0                       # What write queue length does an incoming req see
system.mem_ctrls1.wrQLenPdf::45                     0                       # What write queue length does an incoming req see
system.mem_ctrls1.wrQLenPdf::46                     0                       # What write queue length does an incoming req see
system.mem_ctrls1.wrQLenPdf::47                     0                       # What write queue length does an incoming req see
system.mem_ctrls1.wrQLenPdf::48                     0                       # What write queue length does an incoming req see
system.mem_ctrls1.wrQLenPdf::49                     0                       # What write queue length does an incoming req see
system.mem_ctrls1.wrQLenPdf::50                     0                       # What write queue length does an incoming req see
system.mem_ctrls1.wrQLenPdf::51                     0                       # What write queue length does an incoming req see
system.mem_ctrls1.wrQLenPdf::52                     0                       # What write queue length does an incoming req see
system.mem_ctrls1.wrQLenPdf::53                     0                       # What write queue length does an incoming req see
system.mem_ctrls1.wrQLenPdf::54                     0                       # What write queue length does an incoming req see
system.mem_ctrls1.wrQLenPdf::55                     0                       # What write queue length does an incoming req see
system.mem_ctrls1.wrQLenPdf::56                     0                       # What write queue length does an incoming req see
system.mem_ctrls1.wrQLenPdf::57                     0                       # What write queue length does an incoming req see
system.mem_ctrls1.wrQLenPdf::58                     0                       # What write queue length does an incoming req see
system.mem_ctrls1.wrQLenPdf::59                     0                       # What write queue length does an incoming req see
system.mem_ctrls1.wrQLenPdf::60                     0                       # What write queue length does an incoming req see
system.mem_ctrls1.wrQLenPdf::61                     0                       # What write queue length does an incoming req see
system.mem_ctrls1.wrQLenPdf::62                     0                       # What write queue length does an incoming req see
system.mem_ctrls1.wrQLenPdf::63                     0                       # What write queue length does an incoming req see
system.mem_ctrls1.bytesPerActivate::samples      2635365                       # Bytes accessed per row activation
system.mem_ctrls1.bytesPerActivate::mean   136.961139                       # Bytes accessed per row activation
system.mem_ctrls1.bytesPerActivate::gmean   105.373372                       # Bytes accessed per row activation
system.mem_ctrls1.bytesPerActivate::stdev   132.113684                       # Bytes accessed per row activation
system.mem_ctrls1.bytesPerActivate::0-127      1408846     53.46%     53.46% # Bytes accessed per row activation
system.mem_ctrls1.bytesPerActivate::128-255       901917     34.22%     87.68% # Bytes accessed per row activation
system.mem_ctrls1.bytesPerActivate::256-383       118605      4.50%     92.18% # Bytes accessed per row activation
system.mem_ctrls1.bytesPerActivate::384-511        80544      3.06%     95.24% # Bytes accessed per row activation
system.mem_ctrls1.bytesPerActivate::512-639        77408      2.94%     98.18% # Bytes accessed per row activation
system.mem_ctrls1.bytesPerActivate::640-767        33013      1.25%     99.43% # Bytes accessed per row activation
system.mem_ctrls1.bytesPerActivate::768-895         8074      0.31%     99.74% # Bytes accessed per row activation
system.mem_ctrls1.bytesPerActivate::896-1023         1778      0.07%     99.80% # Bytes accessed per row activation
system.mem_ctrls1.bytesPerActivate::1024-1151         5180      0.20%    100.00% # Bytes accessed per row activation
system.mem_ctrls1.bytesPerActivate::total      2635365                       # Bytes accessed per row activation
system.mem_ctrls1.rdPerTurnAround::samples        79695                       # Reads before turning the bus around for writes
system.mem_ctrls1.rdPerTurnAround::mean     53.629789                       # Reads before turning the bus around for writes
system.mem_ctrls1.rdPerTurnAround::gmean    48.029242                       # Reads before turning the bus around for writes
system.mem_ctrls1.rdPerTurnAround::stdev   114.693854                       # Reads before turning the bus around for writes
system.mem_ctrls1.rdPerTurnAround::0-1023        79694    100.00%    100.00% # Reads before turning the bus around for writes
system.mem_ctrls1.rdPerTurnAround::30720-31743            1      0.00%    100.00% # Reads before turning the bus around for writes
system.mem_ctrls1.rdPerTurnAround::total        79695                       # Reads before turning the bus around for writes
system.mem_ctrls1.wrPerTurnAround::samples        79695                       # Writes before turning the bus around for reads
system.mem_ctrls1.wrPerTurnAround::mean     17.136408                       # Writes before turning the bus around for reads
system.mem_ctrls1.wrPerTurnAround::gmean    17.103841                       # Writes before turning the bus around for reads
system.mem_ctrls1.wrPerTurnAround::stdev     1.056086                       # Writes before turning the bus around for reads
system.mem_ctrls1.wrPerTurnAround::16           35575     44.64%     44.64% # Writes before turning the bus around for reads
system.mem_ctrls1.wrPerTurnAround::17            1386      1.74%     46.38% # Writes before turning the bus around for reads
system.mem_ctrls1.wrPerTurnAround::18           39433     49.48%     95.86% # Writes before turning the bus around for reads
system.mem_ctrls1.wrPerTurnAround::19            2937      3.69%     99.54% # Writes before turning the bus around for reads
system.mem_ctrls1.wrPerTurnAround::20             320      0.40%     99.94% # Writes before turning the bus around for reads
system.mem_ctrls1.wrPerTurnAround::21              41      0.05%    100.00% # Writes before turning the bus around for reads
system.mem_ctrls1.wrPerTurnAround::22               3      0.00%    100.00% # Writes before turning the bus around for reads
system.mem_ctrls1.wrPerTurnAround::total        79695                       # Writes before turning the bus around for reads
system.mem_ctrls1.totQLat                 96571919324                       # Total ticks spent queuing
system.mem_ctrls1.totMemAccLat           176710506824                       # Total ticks spent from burst creation until serviced by the DRAM
system.mem_ctrls1.totBusLat               21370290000                       # Total ticks spent in databus transfers
system.mem_ctrls1.avgQLat                    22594.90                       # Average queueing delay per DRAM burst
system.mem_ctrls1.avgBusLat                   5000.00                       # Average bus latency per DRAM burst
system.mem_ctrls1.avgMemAccLat               41344.90                       # Average memory access latency per DRAM burst
system.mem_ctrls1.avgRdBW                      136.18                       # Average DRAM read bandwidth in MiByte/s
system.mem_ctrls1.avgWrBW                       43.51                       # Average achieved write bandwidth in MiByte/s
system.mem_ctrls1.avgRdBWSys                   136.20                       # Average system read bandwidth in MiByte/s
system.mem_ctrls1.avgWrBWSys                    43.51                       # Average system write bandwidth in MiByte/s
system.mem_ctrls1.peakBW                     12800.00                       # Theoretical peak bandwidth in MiByte/s
system.mem_ctrls1.busUtil                        1.40                       # Data bus utilization in percentage
system.mem_ctrls1.busUtilRead                    1.06                       # Data bus utilization in percentage for reads
system.mem_ctrls1.busUtilWrite                   0.34                       # Data bus utilization in percentage for writes
system.mem_ctrls1.avgRdQLen                      1.01                       # Average read queue length when enqueuing
system.mem_ctrls1.avgWrQLen                     24.53                       # Average write queue length when enqueuing
system.mem_ctrls1.readRowHits                 2588078                       # Number of row buffer hits during reads
system.mem_ctrls1.writeRowHits                 416292                       # Number of row buffer hits during writes
system.mem_ctrls1.readRowHitRate                60.55                       # Row buffer hit rate for reads
system.mem_ctrls1.writeRowHitRate               30.48                       # Row buffer hit rate for writes
system.mem_ctrls1.avgGap                    356122.29                       # Average gap between requests
system.mem_ctrls1.pageHitRate                   53.27                       # Row buffer hit rate, read and write combined
system.mem_ctrls1_0.actEnergy              9470046180                       # Energy for activate commands per rank (pJ)
system.mem_ctrls1_0.preEnergy              5033426145                       # Energy for precharge commands per rank (pJ)
system.mem_ctrls1_0.readEnergy            15342681900                       # Energy for read commands per rank (pJ)
system.mem_ctrls1_0.writeEnergy            3603517380                       # Energy for write commands per rank (pJ)
system.mem_ctrls1_0.refreshEnergy        156115486800.000031                       # Energy for refresh commands per rank (pJ)
system.mem_ctrls1_0.actBackEnergy         96372185700                       # Energy for active background per rank (pJ)
system.mem_ctrls1_0.preBackEnergy          5622531840                       # Energy for precharge background per rank (pJ)
system.mem_ctrls1_0.actPowerDownEnergy   600833047050                       # Energy for active power-down per rank (pJ)
system.mem_ctrls1_0.prePowerDownEnergy   120383141280                       # Energy for precharge power-down per rank (pJ)
system.mem_ctrls1_0.selfRefreshEnergy     45569442120                       # Energy for self refresh per rank (pJ)
system.mem_ctrls1_0.totalEnergy          1058377829415                       # Total energy per rank (pJ)
system.mem_ctrls1_0.averagePower           526.904841                       # Core power per rank (mW)
system.mem_ctrls1_0.totalIdleTime        1782621661532                       # Total Idle time Per DRAM Rank
system.mem_ctrls1_0.memoryStateTime::IDLE   5830773307                       # Time in different power states
system.mem_ctrls1_0.memoryStateTime::REF  66142224000                       # Time in different power states
system.mem_ctrls1_0.memoryStateTime::SREF 151499213233                       # Time in different power states
system.mem_ctrls1_0.memoryStateTime::PRE_PDN 313498279513                       # Time in different power states
system.mem_ctrls1_0.memoryStateTime::ACT 154075014679                       # Time in different power states
system.mem_ctrls1_0.memoryStateTime::ACT_PDN 1317624262820                       # Time in different power states
system.mem_ctrls1_1.actEnergy              9346524180                       # Energy for activate commands per rank (pJ)
system.mem_ctrls1_1.preEnergy              4967784030                       # Energy for precharge commands per rank (pJ)
system.mem_ctrls1_1.readEnergy            15174092220                       # Energy for read commands per rank (pJ)
system.mem_ctrls1_1.writeEnergy            3525363540                       # Energy for write commands per rank (pJ)
system.mem_ctrls1_1.refreshEnergy        155548174080.000031                       # Energy for refresh commands per rank (pJ)
system.mem_ctrls1_1.actBackEnergy         96491258130                       # Energy for active background per rank (pJ)
system.mem_ctrls1_1.preBackEnergy          5642793120                       # Energy for precharge background per rank (pJ)
system.mem_ctrls1_1.actPowerDownEnergy   595502033700                       # Energy for active power-down per rank (pJ)
system.mem_ctrls1_1.prePowerDownEnergy   120716047680                       # Energy for precharge power-down per rank (pJ)
system.mem_ctrls1_1.selfRefreshEnergy     48345704955                       # Energy for self refresh per rank (pJ)
system.mem_ctrls1_1.totalEnergy          1055297558505                       # Total energy per rank (pJ)
system.mem_ctrls1_1.averagePower           525.371350                       # Core power per rank (mW)
system.mem_ctrls1_1.totalIdleTime        1782292176814                       # Total Idle time Per DRAM Rank
system.mem_ctrls1_1.memoryStateTime::IDLE   5957126507                       # Time in different power states
system.mem_ctrls1_1.memoryStateTime::REF  65904818000                       # Time in different power states
system.mem_ctrls1_1.memoryStateTime::SREF 161997164762                       # Time in different power states
system.mem_ctrls1_1.memoryStateTime::PRE_PDN 314367561952                       # Time in different power states
system.mem_ctrls1_1.memoryStateTime::ACT 154515406246                       # Time in different power states
system.mem_ctrls1_1.memoryStateTime::ACT_PDN 1305927690085                       # Time in different power states
system.pwrStateResidencyTicks::UNDEFINED 75278823568254                       # Cumulative time (in ticks) in various power states
system.cpu.branchPred.lookups                       2                       # Number of BP lookups
system.cpu.branchPred.condPredicted                 2                       # Number of conditional branches predicted
system.cpu.branchPred.condIncorrect                 1                       # Number of conditional branches incorrect
system.cpu.branchPred.BTBLookups                    0                       # Number of BTB lookups
system.cpu.branchPred.BTBHits                       0                       # Number of BTB hits
system.cpu.branchPred.BTBCorrect                    0                       # Number of correct BTB predictions (this stat may not work properly.
system.cpu.branchPred.BTBHitPct                   nan                       # BTB Hit Percentage
system.cpu.branchPred.usedRAS                       0                       # Number of times the RAS was used to get a target.
system.cpu.branchPred.RASInCorrect                  0                       # Number of incorrect RAS predictions.
system.cpu.branchPred.indirectLookups               0                       # Number of indirect predictor lookups.
system.cpu.branchPred.indirectHits                  0                       # Number of indirect target hits.
system.cpu.branchPred.indirectMisses                0                       # Number of indirect misses.
system.cpu.branchPredindirectMispredicted            0                       # Number of mispredicted indirect branches.
system.cpu_voltage_domain.voltage                   1                       # Voltage in Volts
system.cpu_clk_domain.clock                       333                       # Clock period in ticks
system.cpu.dtb.fetch_hits                           0                       # ITB hits
system.cpu.dtb.fetch_misses                         0                       # ITB misses
system.cpu.dtb.fetch_acv                            0                       # ITB acv
system.cpu.dtb.fetch_accesses                       0                       # ITB accesses
system.cpu.dtb.read_hits                           23                       # DTB read hits
system.cpu.dtb.read_misses                          0                       # DTB read misses
system.cpu.dtb.read_acv                             0                       # DTB read access violations
system.cpu.dtb.read_accesses                       23                       # DTB read accesses
system.cpu.dtb.write_hits                           3                       # DTB write hits
system.cpu.dtb.write_misses                         0                       # DTB write misses
system.cpu.dtb.write_acv                            0                       # DTB write access violations
system.cpu.dtb.write_accesses                       3                       # DTB write accesses
system.cpu.dtb.data_hits                           26                       # DTB hits
system.cpu.dtb.data_misses                          0                       # DTB misses
system.cpu.dtb.data_acv                             0                       # DTB access violations
system.cpu.dtb.data_accesses                       26                       # DTB accesses
system.cpu.itb.fetch_hits                           7                       # ITB hits
system.cpu.itb.fetch_misses                         0                       # ITB misses
system.cpu.itb.fetch_acv                            0                       # ITB acv
system.cpu.itb.fetch_accesses                       7                       # ITB accesses
system.cpu.itb.read_hits                            0                       # DTB read hits
system.cpu.itb.read_misses                          0                       # DTB read misses
system.cpu.itb.read_acv                             0                       # DTB read access violations
system.cpu.itb.read_accesses                        0                       # DTB read accesses
system.cpu.itb.write_hits                           0                       # DTB write hits
system.cpu.itb.write_misses                         0                       # DTB write misses
system.cpu.itb.write_acv                            0                       # DTB write access violations
system.cpu.itb.write_accesses                       0                       # DTB write accesses
system.cpu.itb.data_hits                            0                       # DTB hits
system.cpu.itb.data_misses                          0                       # DTB misses
system.cpu.itb.data_acv                             0                       # DTB access violations
system.cpu.itb.data_accesses                        0                       # DTB accesses
system.cpu.workload.num_syscalls                    0                       # Number of system calls
system.cpu.pwrStateResidencyTicks::ON    2008669767552                       # Cumulative time (in ticks) in various power states
system.cpu.numCycles                             1111                       # number of cpu cycles simulated
system.cpu.numWorkItemsStarted                      0                       # number of work items this cpu started
system.cpu.numWorkItemsCompleted                    0                       # number of work items this cpu completed
system.cpu.fetch.icacheStallCycles                 64                       # Number of cycles fetch is stalled on an Icache miss
system.cpu.fetch.Insts                             51                       # Number of instructions fetch has processed
system.cpu.fetch.Branches                           2                       # Number of branches that fetch encountered
system.cpu.fetch.Cycles                             7                       # Number of cycles fetch has run and was not squashing or blocked
system.cpu.fetch.SquashCycles                       5                       # Number of cycles fetch has spent squashing
system.cpu.fetch.PendingDrainCycles                10                       # Number of cycles fetch has spent waiting on pipes to drain
system.cpu.fetch.CacheLines                         7                       # Number of cache lines fetched
system.cpu.fetch.IcacheSquashes                     3                       # Number of outstanding Icache misses that were squashed
system.cpu.fetch.rateDist::samples                 83                       # Number of instructions fetched each cycle (Total)
system.cpu.fetch.rateDist::mean              0.614458                       # Number of instructions fetched each cycle (Total)
system.cpu.fetch.rateDist::stdev             2.076767                       # Number of instructions fetched each cycle (Total)
system.cpu.fetch.rateDist::underflows               0      0.00%      0.00% # Number of instructions fetched each cycle (Total)
system.cpu.fetch.rateDist::0                       76     91.57%     91.57% # Number of instructions fetched each cycle (Total)
system.cpu.fetch.rateDist::1                        0      0.00%     91.57% # Number of instructions fetched each cycle (Total)
system.cpu.fetch.rateDist::2                        0      0.00%     91.57% # Number of instructions fetched each cycle (Total)
system.cpu.fetch.rateDist::3                        0      0.00%     91.57% # Number of instructions fetched each cycle (Total)
[...]
system.switch_cpus_1.iq.int_inst_queue_writes    142181315                       # Number of integer instruction queue writes
system.switch_cpus_1.iq.int_inst_queue_wakeup_accesses    140180040                       # Number of integer instruction queue wakeup accesses
system.switch_cpus_1.iq.fp_inst_queue_reads    151032628                       # Number of floating instruction queue reads
system.switch_cpus_1.iq.fp_inst_queue_writes     62656027                       # Number of floating instruction queue writes
system.switch_cpus_1.iq.fp_inst_queue_wakeup_accesses     61349106                       # Number of floating instruction queue wakeup accesses
system.switch_cpus_1.iq.int_alu_accesses    154389768                       # Number of integer alu accesses
system.switch_cpus_1.iq.fp_alu_accesses      81347827                       # Number of floating point alu accesses
system.switch_cpus_1.iew.lsq.thread0.forwLoads      1451270                       # Number of loads that had data forwarded from stores
system.switch_cpus_1.iew.lsq.thread0.invAddrLoads            0                       # Number of loads ignored due to an invalid address
system.switch_cpus_1.iew.lsq.thread0.squashedLoads       802723                       # Number of loads squashed
system.switch_cpus_1.iew.lsq.thread0.ignoredResponses            1                       # Number of memory responses ignored because the instruction is squashed
system.switch_cpus_1.iew.lsq.thread0.memOrderViolation          362                       # Number of memory ordering violations
system.switch_cpus_1.iew.lsq.thread0.squashedStores       151685                       # Number of stores squashed
system.switch_cpus_1.iew.lsq.thread0.invAddrSwpfs            0                       # Number of software prefetches ignored due to an invalid address
system.switch_cpus_1.iew.lsq.thread0.blockedLoads            0                       # Number of blocked loads due to partial load-store forwarding
system.switch_cpus_1.iew.lsq.thread0.rescheduledLoads            0                       # Number of loads that were rescheduled
system.switch_cpus_1.iew.lsq.thread0.cacheBlocked     12193537                       # Number of times an access to memory failed due to the cache being blocked
system.switch_cpus_1.iew.iewIdleCycles              0                       # Number of cycles IEW is idle
system.switch_cpus_1.iew.iewSquashCycles        63509                       # Number of cycles IEW is squashing
system.switch_cpus_1.iew.iewBlockCycles      25066143                       # Number of cycles IEW is blocking
system.switch_cpus_1.iew.iewUnblockCycles     34811427                       # Number of cycles IEW is unblocking
system.switch_cpus_1.iew.iewDispatchedInsts    202486422                       # Number of instructions dispatched to IQ
system.switch_cpus_1.iew.iewDispSquashedInsts        65833                       # Number of squashed instructions skipped by dispatch
system.switch_cpus_1.iew.iewDispLoadInsts     68397122                       # Number of dispatched load instructions
system.switch_cpus_1.iew.iewDispStoreInsts     10464166                       # Number of dispatched store instructions
system.switch_cpus_1.iew.iewDispNonSpecInsts           86                       # Number of dispatched non-speculative instructions
system.switch_cpus_1.iew.iewIQFullEvents       230602                       # Number of times the IQ has become full, causing a stall
system.switch_cpus_1.iew.iewLSQFullEvents     34328251                       # Number of times the LSQ has become full, causing a stall
system.switch_cpus_1.iew.memOrderViolationEvents          362                       # Number of memory order violations
system.switch_cpus_1.iew.predictedTakenIncorrect        47596                       # Number of branches that were predicted taken incorrectly
system.switch_cpus_1.iew.predictedNotTakenIncorrect          437                       # Number of branches that were predicted not taken incorrectly
system.switch_cpus_1.iew.branchMispredicts        48033                       # Number of branch mispredicts detected at execute
system.switch_cpus_1.iew.iewExecutedInsts    213625949                       # Number of executed instructions
system.switch_cpus_1.iew.iewExecLoadInsts     80122624                       # Number of load instructions executed
system.switch_cpus_1.iew.iewExecSquashedInsts       114273                       # Number of squashed instructions skipped in execute
system.switch_cpus_1.iew.exec_swp                   0                       # number of swp insts executed
system.switch_cpus_1.iew.exec_nop               67888                       # number of nop insts executed
system.switch_cpus_1.iew.exec_refs           90477383                       # number of memory reference insts executed
system.switch_cpus_1.iew.exec_branches        5549938                       # Number of branches executed
system.switch_cpus_1.iew.exec_stores         10354759                       # Number of stores executed
system.switch_cpus_1.iew.exec_rate           0.741876                       # Inst execution rate
system.switch_cpus_1.iew.wb_sent            201664122                       # cumulative count of insts sent to commit
system.switch_cpus_1.iew.wb_count           201529146                       # cumulative count of insts written-back
system.switch_cpus_1.iew.wb_producers       139564361                       # num instructions producing a value
system.switch_cpus_1.iew.wb_consumers       153190448                       # num instructions consuming a value
system.switch_cpus_1.iew.wb_rate             0.699867                       # insts written-back per cycle
system.switch_cpus_1.iew.wb_fanout           0.911051                       # average fanout of values written-back
system.switch_cpus_1.commit.commitSquashedInsts      2363499                       # The number of squashed insts skipped by commit
system.switch_cpus_1.commit.commitNonSpecStalls          144                       # The number of times commit has been forced to stall to communicate backwards
system.switch_cpus_1.commit.branchMispredicts        47874                       # The number of times a branch was mispredicted
system.switch_cpus_1.commit.committed_per_cycle::samples    287620038                       # Number of insts commited each cycle
system.switch_cpus_1.commit.committed_per_cycle::mean     0.695566                       # Number of insts commited each cycle
system.switch_cpus_1.commit.committed_per_cycle::stdev     2.111381                       # Number of insts commited each cycle
system.switch_cpus_1.commit.committed_per_cycle::underflows            0      0.00%      0.00% # Number of insts commited each cycle
system.switch_cpus_1.commit.committed_per_cycle::0    251773164     87.54%     87.54% # Number of insts commited each cycle
system.switch_cpus_1.commit.committed_per_cycle::1      7470183      2.60%     90.13% # Number of insts commited each cycle
system.switch_cpus_1.commit.committed_per_cycle::2      1487859      0.52%     90.65% # Number of insts commited each cycle
system.switch_cpus_1.commit.committed_per_cycle::3      1594879      0.55%     91.21% # Number of insts commited each cycle
system.switch_cpus_1.commit.committed_per_cycle::4      2167134      0.75%     91.96% # Number of insts commited each cycle
system.switch_cpus_1.commit.committed_per_cycle::5      1488757      0.52%     92.48% # Number of insts commited each cycle
system.switch_cpus_1.commit.committed_per_cycle::6      1334932      0.46%     92.94% # Number of insts commited each cycle
system.switch_cpus_1.commit.committed_per_cycle::7      1718820      0.60%     93.54% # Number of insts commited each cycle
system.switch_cpus_1.commit.committed_per_cycle::8     18584310      6.46%    100.00% # Number of insts commited each cycle
system.switch_cpus_1.commit.committed_per_cycle::overflows            0      0.00%    100.00% # Number of insts commited each cycle
system.switch_cpus_1.commit.committed_per_cycle::min_value            0                       # Number of insts commited each cycle
system.switch_cpus_1.commit.committed_per_cycle::max_value            8                       # Number of insts commited each cycle
system.switch_cpus_1.commit.committed_per_cycle::total    287620038                       # Number of insts commited each cycle
system.switch_cpus_1.commit.committedInsts    200058671                       # Number of instructions committed
system.switch_cpus_1.commit.committedOps    200058671                       # Number of ops (including micro ops) committed
system.switch_cpus_1.commit.swp_count               0                       # Number of s/w prefetches committed
system.switch_cpus_1.commit.refs             77906848                       # Number of memory references committed
system.switch_cpus_1.commit.loads            67594371                       # Number of loads committed
system.switch_cpus_1.commit.membars                72                       # Number of memory barriers committed
system.switch_cpus_1.commit.branches          5447366                       # Number of branches committed
system.switch_cpus_1.commit.fp_insts         61032861                       # Number of committed floating point instructions.
system.switch_cpus_1.commit.int_insts       169602469                       # Number of committed integer instructions.
system.switch_cpus_1.commit.function_calls           74                       # Number of function calls committed.
system.switch_cpus_1.commit.op_class_0::No_OpClass        58667      0.03%      0.03% # Class of committed instruction
system.switch_cpus_1.commit.op_class_0::IntAlu     69024585     34.50%     34.53% # Class of committed instruction
system.switch_cpus_1.commit.op_class_0::IntMult     22692429     11.34%     45.87% # Class of committed instruction
system.switch_cpus_1.commit.op_class_0::IntDiv            0      0.00%     45.87% # Class of committed instruction
system.switch_cpus_1.commit.op_class_0::FloatAdd     15421069      7.71%     53.58% # Class of committed instruction
system.switch_cpus_1.commit.op_class_0::FloatCmp            0      0.00%     53.58% # Class of committed instruction
system.switch_cpus_1.commit.op_class_0::FloatCvt         3010      0.00%     53.58% # Class of committed instruction
system.switch_cpus_1.commit.op_class_0::FloatMult     13619855      6.81%     60.39% # Class of committed instruction
system.switch_cpus_1.commit.op_class_0::FloatMultAcc            0      0.00%     60.39% # Class of committed instruction
system.switch_cpus_1.commit.op_class_0::FloatDiv      1151536      0.58%     60.97% # Class of committed instruction
system.switch_cpus_1.commit.op_class_0::FloatMisc            0      0.00%     60.97% # Class of committed instruction
system.switch_cpus_1.commit.op_class_0::FloatSqrt       180600      0.09%     61.06% # Class of committed instruction
system.switch_cpus_1.commit.op_class_0::SimdAdd            0      0.00%     61.06% # Class of committed instruction
system.switch_cpus_1.commit.op_class_0::SimdAddAcc            0      0.00%     61.06% # Class of committed instruction
system.switch_cpus_1.commit.op_class_0::SimdAlu            0      0.00%     61.06% # Class of committed instruction
system.switch_cpus_1.commit.op_class_0::SimdCmp            0      0.00%     61.06% # Class of committed instruction
system.switch_cpus_1.commit.op_class_0::SimdCvt            0      0.00%     61.06% # Class of committed instruction
system.switch_cpus_1.commit.op_class_0::SimdMisc            0      0.00%     61.06% # Class of committed instruction
system.switch_cpus_1.commit.op_class_0::SimdMult            0      0.00%     61.06% # Class of committed instruction
system.switch_cpus_1.commit.op_class_0::SimdMultAcc            0      0.00%     61.06% # Class of committed instruction
system.switch_cpus_1.commit.op_class_0::SimdShift            0      0.00%     61.06% # Class of committed instruction
system.switch_cpus_1.commit.op_class_0::SimdShiftAcc            0      0.00%     61.06% # Class of committed instruction
system.switch_cpus_1.commit.op_class_0::SimdSqrt            0      0.00%     61.06% # Class of committed instruction
system.switch_cpus_1.commit.op_class_0::SimdFloatAdd            0      0.00%     61.06% # Class of committed instruction
system.switch_cpus_1.commit.op_class_0::SimdFloatAlu            0      0.00%     61.06% # Class of committed instruction
system.switch_cpus_1.commit.op_class_0::SimdFloatCmp            0      0.00%     61.06% # Class of committed instruction
system.switch_cpus_1.commit.op_class_0::SimdFloatCvt            0      0.00%     61.06% # Class of committed instruction
system.switch_cpus_1.commit.op_class_0::SimdFloatDiv            0      0.00%     61.06% # Class of committed instruction
system.switch_cpus_1.commit.op_class_0::SimdFloatMisc            0      0.00%     61.06% # Class of committed instruction
system.switch_cpus_1.commit.op_class_0::SimdFloatMult            0      0.00%     61.06% # Class of committed instruction
system.switch_cpus_1.commit.op_class_0::SimdFloatMultAcc            0      0.00%     61.06% # Class of committed instruction
system.switch_cpus_1.commit.op_class_0::SimdFloatSqrt            0      0.00%     61.06% # Class of committed instruction
system.switch_cpus_1.commit.op_class_0::MemRead     44149715     22.07%     83.13% # Class of committed instruction
system.switch_cpus_1.commit.op_class_0::MemWrite      3100414      1.55%     84.68% # Class of committed instruction
system.switch_cpus_1.commit.op_class_0::FloatMemRead     23444728     11.72%     96.40% # Class of committed instruction
system.switch_cpus_1.commit.op_class_0::FloatMemWrite      7212063      3.60%    100.00% # Class of committed instruction
system.switch_cpus_1.commit.op_class_0::IprAccess            0      0.00%    100.00% # Class of committed instruction
system.switch_cpus_1.commit.op_class_0::InstPrefetch            0      0.00%    100.00% # Class of committed instruction
system.switch_cpus_1.commit.op_class_0::total    200058671                       # Class of committed instruction
system.switch_cpus_1.commit.bw_lim_events     18584310                       # number cycles where commit BW limit reached
system.switch_cpus_1.rob.rob_reads          471258725                       # The number of ROB reads
system.switch_cpus_1.rob.rob_writes         405164022                       # The number of ROB writes
system.switch_cpus_1.timesIdled                   114                       # Number of times that the entire CPU went into an idle state and unscheduled itself
system.switch_cpus_1.idleCycles                 14009                       # Total number of cycles that the CPU has spent unscheduled due to idling
system.switch_cpus_1.committedInsts         200000004                       # Number of Instructions Simulated
system.switch_cpus_1.committedOps           200000004                       # Number of Ops (including micro ops) Simulated
system.switch_cpus_1.cpi                     1.439768                       # CPI: Cycles Per Instruction
system.switch_cpus_1.cpi_total               1.439768                       # CPI: Total CPI of All Threads
system.switch_cpus_1.ipc                     0.694556                       # IPC: Instructions Per Cycle
system.switch_cpus_1.ipc_total               0.694556                       # IPC: Total IPC of All Threads
system.switch_cpus_1.int_regfile_reads      260160783                       # number of integer regfile reads
system.switch_cpus_1.int_regfile_writes     131551347                       # number of integer regfile writes
system.switch_cpus_1.fp_regfile_reads        68056126                       # number of floating regfile reads
system.switch_cpus_1.fp_regfile_writes       54127913                       # number of floating regfile writes
system.switch_cpus_1.misc_regfile_reads           162                       # number of misc regfile reads
system.switch_cpus_1.misc_regfile_writes          144                       # number of misc regfile writes
system.tol3bus.snoop_filter.tot_requests     21501560                       # Total number of requests made to the snoop filter.
system.tol3bus.snoop_filter.hit_single_requests     10748473                       # Number of requests hitting in the snoop filter with a single holder of the requested data.
system.tol3bus.snoop_filter.hit_multi_requests            0                       # Number of requests hitting in the snoop filter with multiple (>1) holders of the requested data.
system.tol3bus.snoop_filter.tot_snoops          43795                       # Total number of snoops made to the snoop filter.
system.tol3bus.snoop_filter.hit_single_snoops        43795                       # Number of snoops hitting in the snoop filter with a single holder of the requested data.
system.tol3bus.snoop_filter.hit_multi_snoops            0                       # Number of snoops hitting in the snoop filter with multiple (>1) holders of the requested data.
system.tol3bus.pwrStateResidencyTicks::UNDEFINED 75278823568254                       # Cumulative time (in ticks) in various power states
system.tol3bus.trans_dist::ReadResp           8306216                       # Transaction distribution
system.tol3bus.trans_dist::WritebackDirty      6015167                       # Transaction distribution
system.tol3bus.trans_dist::CleanEvict        13220318                       # Transaction distribution
system.tol3bus.trans_dist::ReadExReq          2446871                       # Transaction distribution
system.tol3bus.trans_dist::ReadExResp         2446869                       # Transaction distribution
system.tol3bus.trans_dist::ReadSharedReq      8306216                       # Transaction distribution
system.tol3bus.pkt_count_system.cpu.l2.mem_side::system.l3.cpu_side     32254645                       # Packet count per connected master and slave (bytes)
system.tol3bus.pkt_size_system.cpu.l2.mem_side::system.l3.cpu_side    898355072                       # Cumulative packet size per connected master and slave (bytes)
system.tol3bus.snoops                         8487012                       # Total snoops (count)
system.tol3bus.snoopTraffic                 174813056                       # Total snoop traffic (bytes)
system.tol3bus.snoop_fanout::samples         19240099                       # Request fanout histogram
system.tol3bus.snoop_fanout::mean            0.002276                       # Request fanout histogram
system.tol3bus.snoop_fanout::stdev           0.047656                       # Request fanout histogram
system.tol3bus.snoop_fanout::underflows             0      0.00%      0.00% # Request fanout histogram
system.tol3bus.snoop_fanout::0               19196304     99.77%     99.77% # Request fanout histogram
system.tol3bus.snoop_fanout::1                  43795      0.23%    100.00% # Request fanout histogram
system.tol3bus.snoop_fanout::overflows              0      0.00%    100.00% # Request fanout histogram
system.tol3bus.snoop_fanout::min_value              0                       # Request fanout histogram
system.tol3bus.snoop_fanout::max_value              1                       # Request fanout histogram
system.tol3bus.snoop_fanout::total           19240099                       # Request fanout histogram
system.tol3bus.reqLayer0.occupancy         8253495909                       # Layer occupancy (ticks)
system.tol3bus.reqLayer0.utilization              0.4                       # Layer utilization (%)
system.tol3bus.respLayer0.occupancy        7161554610                       # Layer occupancy (ticks)
system.tol3bus.respLayer0.utilization             0.4                       # Layer utilization (%)

---------- End Simulation Statistics   ----------
