
---------- Begin Simulation Statistics ----------
sim_seconds                                  1.058852                       # Number of seconds simulated
sim_ticks                                1058851711377                       # Number of ticks simulated
final_tick                               176610135833244                       # Number of ticks from beginning of simulation (restored from checkpoints and never reset)
sim_freq                                 1000000000000                       # Frequency of simulated ticks
host_inst_rate                                 693541                       # Simulator instruction rate (inst/s)
host_op_rate                                   693541                       # Simulator op (including micro ops) rate (op/s)
host_tick_rate                              611964316                       # Simulator tick rate (ticks/s)
host_mem_usage                                2388780                       # Number of bytes of host memory used
host_seconds                                  1730.25                       # Real time elapsed on the host
sim_insts                                  1200000005                       # Number of instructions simulated
sim_ops                                    1200000005                       # Number of ops (including micro ops) simulated
system.voltage_domain.voltage                       1                       # Voltage in Volts
system.clk_domain.clock                          1000                       # Clock period in ticks
system.mem_ctrls0.pwrStateResidencyTicks::UNDEFINED 176610135833244                       # Cumulative time (in ticks) in various power states
system.mem_ctrls0.bytes_read::cpu.inst             64                       # Number of bytes read from this memory
system.mem_ctrls0.bytes_read::cpu.data            192                       # Number of bytes read from this memory
system.mem_ctrls0.bytes_read::switch_cpus.inst        48768                       # Number of bytes read from this memory
system.mem_ctrls0.bytes_read::switch_cpus.data      2329856                       # Number of bytes read from this memory
system.mem_ctrls0.bytes_read::switch_cpus_1.inst        10560                       # Number of bytes read from this memory
system.mem_ctrls0.bytes_read::switch_cpus_1.data       248320                       # Number of bytes read from this memory
system.mem_ctrls0.bytes_read::total           2637760                       # Number of bytes read from this memory
system.mem_ctrls0.bytes_inst_read::cpu.inst           64                       # Number of instructions bytes read from this memory
system.mem_ctrls0.bytes_inst_read::switch_cpus.inst        48768                       # Number of instructions bytes read from this memory
system.mem_ctrls0.bytes_inst_read::switch_cpus_1.inst        10560                       # Number of instructions bytes read from this memory
system.mem_ctrls0.bytes_inst_read::total        59392                       # Number of instructions bytes read from this memory
system.mem_ctrls0.bytes_written::writebacks       145024                       # Number of bytes written to this memory
system.mem_ctrls0.bytes_written::total         145024                       # Number of bytes written to this memory
system.mem_ctrls0.num_reads::cpu.inst               1                       # Number of read requests responded to by this memory
system.mem_ctrls0.num_reads::cpu.data               3                       # Number of read requests responded to by this memory
system.mem_ctrls0.num_reads::switch_cpus.inst          762                       # Number of read requests responded to by this memory
system.mem_ctrls0.num_reads::switch_cpus.data        36404                       # Number of read requests responded to by this memory
system.mem_ctrls0.num_reads::switch_cpus_1.inst          165                       # Number of read requests responded to by this memory
system.mem_ctrls0.num_reads::switch_cpus_1.data         3880                       # Number of read requests responded to by this memory
system.mem_ctrls0.num_reads::total              41215                       # Number of read requests responded to by this memory
system.mem_ctrls0.num_writes::writebacks         2266                       # Number of write requests responded to by this memory
system.mem_ctrls0.num_writes::total              2266                       # Number of write requests responded to by this memory
system.mem_ctrls0.bw_read::cpu.inst                60                       # Total read bandwidth from this memory (bytes/s)
system.mem_ctrls0.bw_read::cpu.data               181                       # Total read bandwidth from this memory (bytes/s)
system.mem_ctrls0.bw_read::switch_cpus.inst        46057                       # Total read bandwidth from this memory (bytes/s)
system.mem_ctrls0.bw_read::switch_cpus.data      2200361                       # Total read bandwidth from this memory (bytes/s)
system.mem_ctrls0.bw_read::switch_cpus_1.inst         9973                       # Total read bandwidth from this memory (bytes/s)
system.mem_ctrls0.bw_read::switch_cpus_1.data       234518                       # Total read bandwidth from this memory (bytes/s)
system.mem_ctrls0.bw_read::total              2491151                       # Total read bandwidth from this memory (bytes/s)
system.mem_ctrls0.bw_inst_read::cpu.inst           60                       # Instruction read bandwidth from this memory (bytes/s)
system.mem_ctrls0.bw_inst_read::switch_cpus.inst        46057                       # Instruction read bandwidth from this memory (bytes/s)
system.mem_ctrls0.bw_inst_read::switch_cpus_1.inst         9973                       # Instruction read bandwidth from this memory (bytes/s)
system.mem_ctrls0.bw_inst_read::total           56091                       # Instruction read bandwidth from this memory (bytes/s)
system.mem_ctrls0.bw_write::writebacks         136963                       # Write bandwidth from this memory (bytes/s)
system.mem_ctrls0.bw_write::total              136963                       # Write bandwidth from this memory (bytes/s)
system.mem_ctrls0.bw_total::writebacks         136963                       # Total bandwidth to/from this memory (bytes/s)
system.mem_ctrls0.bw_total::cpu.inst               60                       # Total bandwidth to/from this memory (bytes/s)
system.mem_ctrls0.bw_total::cpu.data              181                       # Total bandwidth to/from this memory (bytes/s)
system.mem_ctrls0.bw_total::switch_cpus.inst        46057                       # Total bandwidth to/from this memory (bytes/s)
system.mem_ctrls0.bw_total::switch_cpus.data      2200361                       # Total bandwidth to/from this memory (bytes/s)
system.mem_ctrls0.bw_total::switch_cpus_1.inst         9973                       # Total bandwidth to/from this memory (bytes/s)
system.mem_ctrls0.bw_total::switch_cpus_1.data       234518                       # Total bandwidth to/from this memory (bytes/s)
system.mem_ctrls0.bw_total::total             2628115                       # Total bandwidth to/from this memory (bytes/s)
system.mem_ctrls0.readReqs                      41215                       # Number of read requests accepted
system.mem_ctrls0.writeReqs                      2266                       # Number of write requests accepted
system.mem_ctrls0.readBursts                    41215                       # Number of DRAM read bursts, including those serviced by the write queue
system.mem_ctrls0.writeBursts                    2266                       # Number of DRAM write bursts, including those merged in the write queue
system.mem_ctrls0.bytesReadDRAM               2597120                       # Total number of bytes read from DRAM
system.mem_ctrls0.bytesReadWrQ                  40640                       # Total number of bytes read from write queue
system.mem_ctrls0.bytesWritten                 143040                       # Total number of bytes written to DRAM
system.mem_ctrls0.bytesReadSys                2637760                       # Total read bytes from the system interface side
system.mem_ctrls0.bytesWrittenSys              145024                       # Total written bytes from the system interface side
system.mem_ctrls0.servicedByWrQ                   635                       # Number of DRAM read bursts serviced by the write queue
system.mem_ctrls0.mergedWrBursts                    6                       # Number of DRAM write bursts merged with an existing one
system.mem_ctrls0.neitherReadNorWriteReqs            0                       # Number of requests that are neither read nor write
system.mem_ctrls0.perBankRdBursts::0             2621                       # Per bank write bursts
system.mem_ctrls0.perBankRdBursts::1             2218                       # Per bank write bursts
system.mem_ctrls0.perBankRdBursts::2             2295                       # Per bank write bursts
system.mem_ctrls0.perBankRdBursts::3             2501                       # Per bank write bursts
system.mem_ctrls0.perBankRdBursts::4             2311                       # Per bank write bursts
system.mem_ctrls0.perBankRdBursts::5             2457                       # Per bank write bursts
system.mem_ctrls0.perBankRdBursts::6             2683                       # Per bank write bursts
system.mem_ctrls0.perBankRdBursts::7             2511                       # Per bank write bursts
system.mem_ctrls0.perBankRdBursts::8             2565                       # Per bank write bursts
system.mem_ctrls0.perBankRdBursts::9             2608                       # Per bank write bursts
system.mem_ctrls0.perBankRdBursts::10            2660                       # Per bank write bursts
system.mem_ctrls0.perBankRdBursts::11            2504                       # Per bank write bursts
system.mem_ctrls0.perBankRdBursts::12            2666                       # Per bank write bursts
system.mem_ctrls0.perBankRdBursts::13            2547                       # Per bank write bursts
system.mem_ctrls0.perBankRdBursts::14            2916                       # Per bank write bursts
system.mem_ctrls0.perBankRdBursts::15            2517                       # Per bank write bursts
system.mem_ctrls0.perBankWrBursts::0              176                       # Per bank write bursts
system.mem_ctrls0.perBankWrBursts::1               60                       # Per bank write bursts
system.mem_ctrls0.perBankWrBursts::2              110                       # Per bank write bursts
system.mem_ctrls0.perBankWrBursts::3              103                       # Per bank write bursts
system.mem_ctrls0.perBankWrBursts::4              159                       # Per bank write bursts
system.mem_ctrls0.perBankWrBursts::5               87                       # Per bank write bursts
system.mem_ctrls0.perBankWrBursts::6              264                       # Per bank write bursts
system.mem_ctrls0.perBankWrBursts::7              117                       # Per bank write bursts
system.mem_ctrls0.perBankWrBursts::8              162                       # Per bank write bursts
system.mem_ctrls0.perBankWrBursts::9               77                       # Per bank write bursts
system.mem_ctrls0.perBankWrBursts::10             114                       # Per bank write bursts
system.mem_ctrls0.perBankWrBursts::11             114                       # Per bank write bursts
system.mem_ctrls0.perBankWrBursts::12             158                       # Per bank write bursts
system.mem_ctrls0.perBankWrBursts::13             100                       # Per bank write bursts
system.mem_ctrls0.perBankWrBursts::14             306                       # Per bank write bursts
system.mem_ctrls0.perBankWrBursts::15             128                       # Per bank write bursts
system.mem_ctrls0.numRdRetry                        0                       # Number of times read queue was full causing retry
system.mem_ctrls0.numWrRetry                        0                       # Number of times write queue was full causing retry
system.mem_ctrls0.totGap                 1058849142615                       # Total gap between requests
system.mem_ctrls0.readPktSize::0                    0                       # Read request sizes (log2)
system.mem_ctrls0.readPktSize::1                    0                       # Read request sizes (log2)
system.mem_ctrls0.readPktSize::2                    0                       # Read request sizes (log2)
system.mem_ctrls0.readPktSize::3                    0                       # Read request sizes (log2)
system.mem_ctrls0.readPktSize::4                    0                       # Read request sizes (log2)
system.mem_ctrls0.readPktSize::5                    0                       # Read request sizes (log2)
system.mem_ctrls0.readPktSize::6                41215                       # Read request sizes (log2)
system.mem_ctrls0.writePktSize::0                   0                       # Write request sizes (log2)
system.mem_ctrls0.writePktSize::1                   0                       # Write request sizes (log2)
system.mem_ctrls0.writePktSize::2                   0                       # Write request sizes (log2)
system.mem_ctrls0.writePktSize::3                   0                       # Write request sizes (log2)
system.mem_ctrls0.writePktSize::4                   0                       # Write request sizes (log2)
system.mem_ctrls0.writePktSize::5                   0                       # Write request sizes (log2)
system.mem_ctrls0.writePktSize::6                2266                       # Write request sizes (log2)
system.mem_ctrls0.rdQLenPdf::0                  40468                       # What read queue length does an incoming req see
system.mem_ctrls0.rdQLenPdf::1                    110                       # What read queue length does an incoming req see
system.mem_ctrls0.rdQLenPdf::2                      2                       # What read queue length does an incoming req see
system.mem_ctrls0.rdQLenPdf::3                      0                       # What read queue length does an incoming req see
system.mem_ctrls0.rdQLenPdf::4                      0                       # What read queue length does an incoming req see
system.mem_ctrls0.rdQLenPdf::5                      0                       # What read queue length does an incoming req see
system.mem_ctrls0.rdQLenPdf::6                      0                       # What read queue length does an incoming req see
system.mem_ctrls0.rdQLenPdf::7                      0                       # What read queue length does an incoming req see
system.mem_ctrls0.rdQLenPdf::8                      0                       # What read queue length does an incoming req see
system.mem_ctrls0.rdQLenPdf::9                      0                       # What read queue length does an incoming req see
system.mem_ctrls0.rdQLenPdf::10                     0                       # What read queue length does an incoming req see
system.mem_ctrls0.rdQLenPdf::11                     0                       # What read queue length does an incoming req see
system.mem_ctrls0.rdQLenPdf::12                     0                       # What read queue length does an incoming req see
system.mem_ctrls0.rdQLenPdf::13                     0                       # What read queue length does an incoming req see
system.mem_ctrls0.rdQLenPdf::14                     0                       # What read queue length does an incoming req see
system.mem_ctrls0.rdQLenPdf::15                     0                       # What read queue length does an incoming req see
system.mem_ctrls0.rdQLenPdf::16                     0                       # What read queue length does an incoming req see
system.mem_ctrls0.rdQLenPdf::17                     0                       # What read queue length does an incoming req see
system.mem_ctrls0.rdQLenPdf::18                     0                       # What read queue length does an incoming req see
system.mem_ctrls0.rdQLenPdf::19                     0                       # What read queue length does an incoming req see
system.mem_ctrls0.rdQLenPdf::20                     0                       # What read queue length does an incoming req see
system.mem_ctrls0.rdQLenPdf::21                     0                       # What read queue length does an incoming req see
system.mem_ctrls0.rdQLenPdf::22                     0                       # What read queue length does an incoming req see
system.mem_ctrls0.rdQLenPdf::23                     0                       # What read queue length does an incoming req see
system.mem_ctrls0.rdQLenPdf::24                     0                       # What read queue length does an incoming req see
system.mem_ctrls0.rdQLenPdf::25                     0                       # What read queue length does an incoming req see
system.mem_ctrls0.rdQLenPdf::26                     0                       # What read queue length does an incoming req see
system.mem_ctrls0.rdQLenPdf::27                     0                       # What read queue length does an incoming req see
system.mem_ctrls0.rdQLenPdf::28                     0                       # What read queue length does an incoming req see
system.mem_ctrls0.rdQLenPdf::29                     0                       # What read queue length does an incoming req see
system.mem_ctrls0.rdQLenPdf::30                     0                       # What read queue length does an incoming req see
system.mem_ctrls0.rdQLenPdf::31                     0                       # What read queue length does an incoming req see
system.mem_ctrls0.wrQLenPdf::0                      2                       # What write queue length does an incoming req see
system.mem_ctrls0.wrQLenPdf::1                      2                       # What write queue length does an incoming req see
system.mem_ctrls0.wrQLenPdf::2                      2                       # What write queue length does an incoming req see
system.mem_ctrls0.wrQLenPdf::3                      2                       # What write queue length does an incoming req see
system.mem_ctrls0.wrQLenPdf::4                      2                       # What write queue length does an incoming req see
system.mem_ctrls0.wrQLenPdf::5                      2                       # What write queue length does an incoming req see
system.mem_ctrls0.wrQLenPdf::6                      2                       # What write queue length does an incoming req see
system.mem_ctrls0.wrQLenPdf::7                      2                       # What write queue length does an incoming req see
system.mem_ctrls0.wrQLenPdf::8                      2                       # What write queue length does an incoming req see
system.mem_ctrls0.wrQLenPdf::9                      2                       # What write queue length does an incoming req see
system.mem_ctrls0.wrQLenPdf::10                     2                       # What write queue length does an incoming req see
system.mem_ctrls0.wrQLenPdf::11                     2                       # What write queue length does an incoming req see
system.mem_ctrls0.wrQLenPdf::12                     2                       # What write queue length does an incoming req see
system.mem_ctrls0.wrQLenPdf::13                     2                       # What write queue length does an incoming req see
system.mem_ctrls0.wrQLenPdf::14                     2                       # What write queue length does an incoming req see
system.mem_ctrls0.wrQLenPdf::15                   118                       # What write queue length does an incoming req see
system.mem_ctrls0.wrQLenPdf::16                   119                       # What write queue length does an incoming req see
system.mem_ctrls0.wrQLenPdf::17                   125                       # What write queue length does an incoming req see
system.mem_ctrls0.wrQLenPdf::18                   125                       # What write queue length does an incoming req see
system.mem_ctrls0.wrQLenPdf::19                   125                       # What write queue length does an incoming req see
system.mem_ctrls0.wrQLenPdf::20                   125                       # What write queue length does an incoming req see
system.mem_ctrls0.wrQLenPdf::21                   125                       # What write queue length does an incoming req see
system.mem_ctrls0.wrQLenPdf::22                   125                       # What write queue length does an incoming req see
system.mem_ctrls0.wrQLenPdf::23                   125                       # What write queue length does an incoming req see
system.mem_ctrls0.wrQLenPdf::24                   125                       # What write queue length does an incoming req see
system.mem_ctrls0.wrQLenPdf::25                   124                       # What write queue length does an incoming req see
system.mem_ctrls0.wrQLenPdf::26                   124                       # What write queue length does an incoming req see
system.mem_ctrls0.wrQLenPdf::27                   124                       # What write queue length does an incoming req see
system.mem_ctrls0.wrQLenPdf::28                   124                       # What write queue length does an incoming req see
system.mem_ctrls0.wrQLenPdf::29                   124                       # What write queue length does an incoming req see
system.mem_ctrls0.wrQLenPdf::30                   125                       # What write queue length does an incoming req see
system.mem_ctrls0.wrQLenPdf::31                   124                       # What write queue length does an incoming req see
system.mem_ctrls0.wrQLenPdf::32                   124                       # What write queue length does an incoming req see
system.mem_ctrls0.wrQLenPdf::33                     0                       # What write queue length does an incoming req see
system.mem_ctrls0.wrQLenPdf::34                     0                       # What write queue length does an incoming req see
system.mem_ctrls0.wrQLenPdf::35                     0                       # What write queue length does an incoming req see
system.mem_ctrls0.wrQLenPdf::36                     0                       # What write queue length does an incoming req see
system.mem_ctrls0.wrQLenPdf::37                     0                       # What write queue length does an incoming req see
system.mem_ctrls0.wrQLenPdf::38                     0                       # What write queue length does an incoming req see
system.mem_ctrls0.wrQLenPdf::39                     0                       # What write queue length does an incoming req see
system.mem_ctrls0.wrQLenPdf::40                     0                       # What write queue length does an incoming req see
system.mem_ctrls0.wrQLenPdf::41                     0                       # What write queue length does an incoming req see
system.mem_ctrls0.wrQLenPdf::42                     0                       # What write queue length does an incoming req see
system.mem_ctrls0.wrQLenPdf::43                     0                       # What write queue length does an incoming req see
system.mem_ctrls0.wrQLenPdf::44                     0                       # What write queue length does an incoming req see
system.mem_ctrls0.wrQLenPdf::45                     0                       # What write queue length does an incoming req see
system.mem_ctrls0.wrQLenPdf::46                     0                       # What write queue length does an incoming req see
system.mem_ctrls0.wrQLenPdf::47                     0                       # What write queue length does an incoming req see
system.mem_ctrls0.wrQLenPdf::48                     0                       # What write queue length does an incoming req see
system.mem_ctrls0.wrQLenPdf::49                     0                       # What write queue length does an incoming req see
system.mem_ctrls0.wrQLenPdf::50                     0                       # What write queue length does an incoming req see
system.mem_ctrls0.wrQLenPdf::51                     0                       # What write queue length does an incoming req see
system.mem_ctrls0.wrQLenPdf::52                     0                       # What write queue length does an incoming req see
system.mem_ctrls0.wrQLenPdf::53                     0                       # What write queue length does an incoming req see
system.mem_ctrls0.wrQLenPdf::54                     0                       # What write queue length does an incoming req see
system.mem_ctrls0.wrQLenPdf::55                     0                       # What write queue length does an incoming req see
system.mem_ctrls0.wrQLenPdf::56                     0                       # What write queue length does an incoming req see
system.mem_ctrls0.wrQLenPdf::57                     0                       # What write queue length does an incoming req see
system.mem_ctrls0.wrQLenPdf::58                     0                       # What write queue length does an incoming req see
system.mem_ctrls0.wrQLenPdf::59                     0                       # What write queue length does an incoming req see
system.mem_ctrls0.wrQLenPdf::60                     0                       # What write queue length does an incoming req see
system.mem_ctrls0.wrQLenPdf::61                     0                       # What write queue length does an incoming req see
system.mem_ctrls0.wrQLenPdf::62                     0                       # What write queue length does an incoming req see
system.mem_ctrls0.wrQLenPdf::63                     0                       # What write queue length does an incoming req see
system.mem_ctrls0.bytesPerActivate::samples        16585                       # Bytes accessed per row activation
system.mem_ctrls0.bytesPerActivate::mean   165.215315                       # Bytes accessed per row activation
system.mem_ctrls0.bytesPerActivate::gmean   117.447249                       # Bytes accessed per row activation
system.mem_ctrls0.bytesPerActivate::stdev   176.522396                       # Bytes accessed per row activation
system.mem_ctrls0.bytesPerActivate::0-127         8466     51.05%     51.05% # Bytes accessed per row activation
system.mem_ctrls0.bytesPerActivate::128-255         5124     30.90%     81.94% # Bytes accessed per row activation
system.mem_ctrls0.bytesPerActivate::256-383         1100      6.63%     88.57% # Bytes accessed per row activation
system.mem_ctrls0.bytesPerActivate::384-511          856      5.16%     93.74% # Bytes accessed per row activation
system.mem_ctrls0.bytesPerActivate::512-639          202      1.22%     94.95% # Bytes accessed per row activation
system.mem_ctrls0.bytesPerActivate::640-767          195      1.18%     96.13% # Bytes accessed per row activation
system.mem_ctrls0.bytesPerActivate::768-895          398      2.40%     98.53% # Bytes accessed per row activation
system.mem_ctrls0.bytesPerActivate::896-1023          243      1.47%     99.99% # Bytes accessed per row activation
system.mem_ctrls0.bytesPerActivate::1024-1151            1      0.01%    100.00% # Bytes accessed per row activation
system.mem_ctrls0.bytesPerActivate::total        16585                       # Bytes accessed per row activation
system.mem_ctrls0.rdPerTurnAround::samples          125                       # Reads before turning the bus around for writes
system.mem_ctrls0.rdPerTurnAround::mean    324.232000                       # Reads before turning the bus around for writes
system.mem_ctrls0.rdPerTurnAround::gmean    56.981366                       # Reads before turning the bus around for writes
system.mem_ctrls0.rdPerTurnAround::stdev  2609.625354                       # Reads before turning the bus around for writes
system.mem_ctrls0.rdPerTurnAround::0-1023          124     99.20%     99.20% # Reads before turning the bus around for writes
system.mem_ctrls0.rdPerTurnAround::28672-29695            1      0.80%    100.00% # Reads before turning the bus around for writes
system.mem_ctrls0.rdPerTurnAround::total          125                       # Reads before turning the bus around for writes
system.mem_ctrls0.wrPerTurnAround::samples          125                       # Writes before turning the bus around for reads
system.mem_ctrls0.wrPerTurnAround::mean     17.880000                       # Writes before turning the bus around for reads
system.mem_ctrls0.wrPerTurnAround::gmean    17.873049                       # Writes before turning the bus around for reads
system.mem_ctrls0.wrPerTurnAround::stdev     0.485267                       # Writes before turning the bus around for reads
system.mem_ctrls0.wrPerTurnAround::16               7      5.60%      5.60% # Writes before turning the bus around for reads
system.mem_ctrls0.wrPerTurnAround::17               2      1.60%      7.20% # Writes before turning the bus around for reads
system.mem_ctrls0.wrPerTurnAround::18             115     92.00%     99.20% # Writes before turning the bus around for reads
system.mem_ctrls0.wrPerTurnAround::19               1      0.80%    100.00% # Writes before turning the bus around for reads
system.mem_ctrls0.wrPerTurnAround::total          125                       # Writes before turning the bus around for reads
system.mem_ctrls0.totQLat                  3389044760                       # Total ticks spent queuing
system.mem_ctrls0.totMemAccLat             4149919760                       # Total ticks spent from burst creation until serviced by the DRAM
system.mem_ctrls0.totBusLat                 202900000                       # Total ticks spent in databus transfers
system.mem_ctrls0.avgQLat                    83515.15                       # Average queueing delay per DRAM burst
system.mem_ctrls0.avgBusLat                   5000.00                       # Average bus latency per DRAM burst
system.mem_ctrls0.avgMemAccLat              102265.15                       # Average memory access latency per DRAM burst
system.mem_ctrls0.avgRdBW                        2.45                       # Average DRAM read bandwidth in MiByte/s
system.mem_ctrls0.avgWrBW                        0.14                       # Average achieved write bandwidth in MiByte/s
system.mem_ctrls0.avgRdBWSys                     2.49                       # Average system read bandwidth in MiByte/s
system.mem_ctrls0.avgWrBWSys                     0.14                       # Average system write bandwidth in MiByte/s
system.mem_ctrls0.peakBW                     12800.00                       # Theoretical peak bandwidth in MiByte/s
system.mem_ctrls0.busUtil                        0.02                       # Data bus utilization in percentage
system.mem_ctrls0.busUtilRead                    0.02                       # Data bus utilization in percentage for reads
system.mem_ctrls0.busUtilWrite                   0.00                       # Data bus utilization in percentage for writes
system.mem_ctrls0.avgRdQLen                      1.00                       # Average read queue length when enqueuing
system.mem_ctrls0.avgWrQLen                     13.21                       # Average write queue length when enqueuing
system.mem_ctrls0.readRowHits                   25838                       # Number of row buffer hits during reads
system.mem_ctrls0.writeRowHits                    391                       # Number of row buffer hits during writes
system.mem_ctrls0.readRowHitRate                63.67                       # Row buffer hit rate for reads
system.mem_ctrls0.writeRowHitRate               17.30                       # Row buffer hit rate for writes
system.mem_ctrls0.avgGap                  24351996.10                       # Average gap between requests
system.mem_ctrls0.pageHitRate                   61.23                       # Row buffer hit rate, read and write combined
system.mem_ctrls0_0.actEnergy                54421080                       # Energy for activate commands per rank (pJ)
system.mem_ctrls0_0.preEnergy                28925490                       # Energy for precharge commands per rank (pJ)
system.mem_ctrls0_0.readEnergy              139922580                       # Energy for read commands per rank (pJ)
system.mem_ctrls0_0.writeEnergy               5616720                       # Energy for write commands per rank (pJ)
system.mem_ctrls0_0.refreshEnergy        5828016480.000001                       # Energy for refresh commands per rank (pJ)
system.mem_ctrls0_0.actBackEnergy          1652048670                       # Energy for active background per rank (pJ)
system.mem_ctrls0_0.preBackEnergy           350700960                       # Energy for precharge background per rank (pJ)
system.mem_ctrls0_0.actPowerDownEnergy    12844034580                       # Energy for active power-down per rank (pJ)
system.mem_ctrls0_0.prePowerDownEnergy     8583619200                       # Energy for precharge power-down per rank (pJ)
system.mem_ctrls0_0.selfRefreshEnergy    242341130535                       # Energy for self refresh per rank (pJ)
system.mem_ctrls0_0.totalEnergy          271829555595                       # Total energy per rank (pJ)
system.mem_ctrls0_0.averagePower           256.721081                       # Core power per rank (mW)
system.mem_ctrls0_0.totalIdleTime        1054251487740                       # Total Idle time Per DRAM Rank
system.mem_ctrls0_0.memoryStateTime::IDLE    710337584                       # Time in different power states
system.mem_ctrls0_0.memoryStateTime::REF   2480962000                       # Time in different power states
system.mem_ctrls0_0.memoryStateTime::SREF 1003793120127                       # Time in different power states
system.mem_ctrls0_0.memoryStateTime::PRE_PDN  22353181467                       # Time in different power states
system.mem_ctrls0_0.memoryStateTime::ACT   1347324672                       # Time in different power states
system.mem_ctrls0_0.memoryStateTime::ACT_PDN  28166785527                       # Time in different power states
system.mem_ctrls0_1.actEnergy                64002960                       # Energy for activate commands per rank (pJ)
system.mem_ctrls0_1.preEnergy                34014585                       # Energy for precharge commands per rank (pJ)
system.mem_ctrls0_1.readEnergy              149818620                       # Energy for read commands per rank (pJ)
system.mem_ctrls0_1.writeEnergy               6049980                       # Energy for write commands per rank (pJ)
system.mem_ctrls0_1.refreshEnergy        6753049680.000002                       # Energy for refresh commands per rank (pJ)
system.mem_ctrls0_1.actBackEnergy          1835164020                       # Energy for active background per rank (pJ)
system.mem_ctrls0_1.preBackEnergy           405134400                       # Energy for precharge background per rank (pJ)
system.mem_ctrls0_1.actPowerDownEnergy    14953899840                       # Energy for active power-down per rank (pJ)
system.mem_ctrls0_1.prePowerDownEnergy    10121367360                       # Energy for precharge power-down per rank (pJ)
system.mem_ctrls0_1.selfRefreshEnergy    240333138195                       # Energy for self refresh per rank (pJ)
system.mem_ctrls0_1.totalEnergy          274656996150                       # Total energy per rank (pJ)
system.mem_ctrls0_1.averagePower           259.391370                       # Core power per rank (mW)
system.mem_ctrls0_1.totalIdleTime        1053767402007                       # Total Idle time Per DRAM Rank
system.mem_ctrls0_1.memoryStateTime::IDLE    818807096                       # Time in different power states
system.mem_ctrls0_1.memoryStateTime::REF   2874458000                       # Time in different power states
system.mem_ctrls0_1.memoryStateTime::SREF 994617794689                       # Time in different power states
system.mem_ctrls0_1.memoryStateTime::PRE_PDN  26357755596                       # Time in different power states
system.mem_ctrls0_1.memoryStateTime::ACT   1389213836                       # Time in different power states
system.mem_ctrls0_1.memoryStateTime::ACT_PDN  32793682160                       # Time in different power states
system.mem_ctrls1.pwrStateResidencyTicks::UNDEFINED 176610135833244                       # Cumulative time (in ticks) in various power states
system.mem_ctrls1.bytes_read::cpu.inst            192                       # Number of bytes read from this memory
system.mem_ctrls1.bytes_read::cpu.data            128                       # Number of bytes read from this memory
system.mem_ctrls1.bytes_read::switch_cpus.inst        49024                       # Number of bytes read from this memory
system.mem_ctrls1.bytes_read::switch_cpus.data      2333184                       # Number of bytes read from this memory
system.mem_ctrls1.bytes_read::switch_cpus_1.inst        12160                       # Number of bytes read from this memory
system.mem_ctrls1.bytes_read::switch_cpus_1.data       254464                       # Number of bytes read from this memory
system.mem_ctrls1.bytes_read::total           2649152                       # Number of bytes read from this memory
system.mem_ctrls1.bytes_inst_read::cpu.inst          192                       # Number of instructions bytes read from this memory
system.mem_ctrls1.bytes_inst_read::switch_cpus.inst        49024                       # Number of instructions bytes read from this memory
system.mem_ctrls1.bytes_inst_read::switch_cpus_1.inst        12160                       # Number of instructions bytes read from this memory
system.mem_ctrls1.bytes_inst_read::total        61376                       # Number of instructions bytes read from this memory
system.mem_ctrls1.bytes_written::writebacks       156544                       # Number of bytes written to this memory
system.mem_ctrls1.bytes_written::total         156544                       # Number of bytes written to this memory
system.mem_ctrls1.num_reads::cpu.inst               3                       # Number of read requests responded to by this memory
system.mem_ctrls1.num_reads::cpu.data               2                       # Number of read requests responded to by this memory
system.mem_ctrls1.num_reads::switch_cpus.inst          766                       # Number of read requests responded to by this memory
system.mem_ctrls1.num_reads::switch_cpus.data        36456                       # Number of read requests responded to by this memory
system.mem_ctrls1.num_reads::switch_cpus_1.inst          190                       # Number of read requests responded to by this memory
system.mem_ctrls1.num_reads::switch_cpus_1.data         3976                       # Number of read requests responded to by this memory
system.mem_ctrls1.num_reads::total              41393                       # Number of read requests responded to by this memory
system.mem_ctrls1.num_writes::writebacks         2446                       # Number of write requests responded to by this memory
system.mem_ctrls1.num_writes::total              2446                       # Number of write requests responded to by this memory
system.mem_ctrls1.bw_read::cpu.inst               181                       # Total read bandwidth from this memory (bytes/s)
system.mem_ctrls1.bw_read::cpu.data               121                       # Total read bandwidth from this memory (bytes/s)
system.mem_ctrls1.bw_read::switch_cpus.inst        46299                       # Total read bandwidth from this memory (bytes/s)
system.mem_ctrls1.bw_read::switch_cpus.data      2203504                       # Total read bandwidth from this memory (bytes/s)
system.mem_ctrls1.bw_read::switch_cpus_1.inst        11484                       # Total read bandwidth from this memory (bytes/s)
system.mem_ctrls1.bw_read::switch_cpus_1.data       240321                       # Total read bandwidth from this memory (bytes/s)
system.mem_ctrls1.bw_read::total              2501910                       # Total read bandwidth from this memory (bytes/s)
system.mem_ctrls1.bw_inst_read::cpu.inst          181                       # Instruction read bandwidth from this memory (bytes/s)
system.mem_ctrls1.bw_inst_read::switch_cpus.inst        46299                       # Instruction read bandwidth from this memory (bytes/s)
system.mem_ctrls1.bw_inst_read::switch_cpus_1.inst        11484                       # Instruction read bandwidth from this memory (bytes/s)
system.mem_ctrls1.bw_inst_read::total           57965                       # Instruction read bandwidth from this memory (bytes/s)
system.mem_ctrls1.bw_write::writebacks         147843                       # Write bandwidth from this memory (bytes/s)
system.mem_ctrls1.bw_write::total              147843                       # Write bandwidth from this memory (bytes/s)
system.mem_ctrls1.bw_total::writebacks         147843                       # Total bandwidth to/from this memory (bytes/s)
system.mem_ctrls1.bw_total::cpu.inst              181                       # Total bandwidth to/from this memory (bytes/s)
system.mem_ctrls1.bw_total::cpu.data              121                       # Total bandwidth to/from this memory (bytes/s)
system.mem_ctrls1.bw_total::switch_cpus.inst        46299                       # Total bandwidth to/from this memory (bytes/s)
system.mem_ctrls1.bw_total::switch_cpus.data      2203504                       # Total bandwidth to/from this memory (bytes/s)
system.mem_ctrls1.bw_total::switch_cpus_1.inst        11484                       # Total bandwidth to/from this memory (bytes/s)
system.mem_ctrls1.bw_total::switch_cpus_1.data       240321                       # Total bandwidth to/from this memory (bytes/s)
system.mem_ctrls1.bw_total::total             2649753                       # Total bandwidth to/from this memory (bytes/s)
system.mem_ctrls1.readReqs                      41393                       # Number of read requests accepted
system.mem_ctrls1.writeReqs                      2446                       # Number of write requests accepted
system.mem_ctrls1.readBursts                    41393                       # Number of DRAM read bursts, including those serviced by the write queue
system.mem_ctrls1.writeBursts                    2446                       # Number of DRAM write bursts, including those merged in the write queue
system.mem_ctrls1.bytesReadDRAM               2608384                       # Total number of bytes read from DRAM
system.mem_ctrls1.bytesReadWrQ                  40768                       # Total number of bytes read from write queue
system.mem_ctrls1.bytesWritten                 154752                       # Total number of bytes written to DRAM
system.mem_ctrls1.bytesReadSys                2649152                       # Total read bytes from the system interface side
system.mem_ctrls1.bytesWrittenSys              156544                       # Total written bytes from the system interface side
system.mem_ctrls1.servicedByWrQ                   637                       # Number of DRAM read bursts serviced by the write queue
system.mem_ctrls1.mergedWrBursts                    2                       # Number of DRAM write bursts merged with an existing one
system.mem_ctrls1.neitherReadNorWriteReqs            0                       # Number of requests that are neither read nor write
system.mem_ctrls1.perBankRdBursts::0             2609                       # Per bank write bursts
system.mem_ctrls1.perBankRdBursts::1             2245                       # Per bank write bursts
system.mem_ctrls1.perBankRdBursts::2             2327                       # Per bank write bursts
system.mem_ctrls1.perBankRdBursts::3             2509                       # Per bank write bursts
system.mem_ctrls1.perBankRdBursts::4             2309                       # Per bank write bursts
system.mem_ctrls1.perBankRdBursts::5             2430                       # Per bank write bursts
system.mem_ctrls1.perBankRdBursts::6             2677                       # Per bank write bursts
system.mem_ctrls1.perBankRdBursts::7             2547                       # Per bank write bursts
system.mem_ctrls1.perBankRdBursts::8             2620                       # Per bank write bursts
system.mem_ctrls1.perBankRdBursts::9             2622                       # Per bank write bursts
system.mem_ctrls1.perBankRdBursts::10            2688                       # Per bank write bursts
system.mem_ctrls1.perBankRdBursts::11            2523                       # Per bank write bursts
system.mem_ctrls1.perBankRdBursts::12            2670                       # Per bank write bursts
system.mem_ctrls1.perBankRdBursts::13            2558                       # Per bank write bursts
system.mem_ctrls1.perBankRdBursts::14            2926                       # Per bank write bursts
system.mem_ctrls1.perBankRdBursts::15            2496                       # Per bank write bursts
system.mem_ctrls1.perBankWrBursts::0              175                       # Per bank write bursts
system.mem_ctrls1.perBankWrBursts::1               84                       # Per bank write bursts
system.mem_ctrls1.perBankWrBursts::2              120                       # Per bank write bursts
system.mem_ctrls1.perBankWrBursts::3               99                       # Per bank write bursts
system.mem_ctrls1.perBankWrBursts::4              152                       # Per bank write bursts
system.mem_ctrls1.perBankWrBursts::5               81                       # Per bank write bursts
system.mem_ctrls1.perBankWrBursts::6              237                       # Per bank write bursts
system.mem_ctrls1.perBankWrBursts::7              137                       # Per bank write bursts
system.mem_ctrls1.perBankWrBursts::8              198                       # Per bank write bursts
system.mem_ctrls1.perBankWrBursts::9               80                       # Per bank write bursts
system.mem_ctrls1.perBankWrBursts::10             145                       # Per bank write bursts
system.mem_ctrls1.perBankWrBursts::11             158                       # Per bank write bursts
system.mem_ctrls1.perBankWrBursts::12             182                       # Per bank write bursts
system.mem_ctrls1.perBankWrBursts::13             119                       # Per bank write bursts
system.mem_ctrls1.perBankWrBursts::14             358                       # Per bank write bursts
system.mem_ctrls1.perBankWrBursts::15              93                       # Per bank write bursts
system.mem_ctrls1.numRdRetry                        0                       # Number of times read queue was full causing retry
system.mem_ctrls1.numWrRetry                        0                       # Number of times write queue was full causing retry
system.mem_ctrls1.totGap                 1058845809285                       # Total gap between requests
system.mem_ctrls1.readPktSize::0                    0                       # Read request sizes (log2)
system.mem_ctrls1.readPktSize::1                    0                       # Read request sizes (log2)
system.mem_ctrls1.readPktSize::2                    0                       # Read request sizes (log2)
system.mem_ctrls1.readPktSize::3                    0                       # Read request sizes (log2)
system.mem_ctrls1.readPktSize::4                    0                       # Read request sizes (log2)
system.mem_ctrls1.readPktSize::5                    0                       # Read request sizes (log2)
system.mem_ctrls1.readPktSize::6                41393                       # Read request sizes (log2)
system.mem_ctrls1.writePktSize::0                   0                       # Write request sizes (log2)
system.mem_ctrls1.writePktSize::1                   0                       # Write request sizes (log2)
system.mem_ctrls1.writePktSize::2                   0                       # Write request sizes (log2)
system.mem_ctrls1.writePktSize::3                   0                       # Write request sizes (log2)
system.mem_ctrls1.writePktSize::4                   0                       # Write request sizes (log2)
system.mem_ctrls1.writePktSize::5                   0                       # Write request sizes (log2)
system.mem_ctrls1.writePktSize::6                2446                       # Write request sizes (log2)
system.mem_ctrls1.rdQLenPdf::0                  40616                       # What read queue length does an incoming req see
system.mem_ctrls1.rdQLenPdf::1                    135                       # What read queue length does an incoming req see
system.mem_ctrls1.rdQLenPdf::2                      5                       # What read queue length does an incoming req see
system.mem_ctrls1.rdQLenPdf::3                      0                       # What read queue length does an incoming req see
system.mem_ctrls1.rdQLenPdf::4                      0                       # What read queue length does an incoming req see
system.mem_ctrls1.rdQLenPdf::5                      0                       # What read queue length does an incoming req see
system.mem_ctrls1.rdQLenPdf::6                      0                       # What read queue length does an incoming req see
system.mem_ctrls1.rdQLenPdf::7                      0                       # What read queue length does an incoming req see
system.mem_ctrls1.rdQLenPdf::8                      0                       # What read queue length does an incoming req see
system.mem_ctrls1.rdQLenPdf::9                      0                       # What read queue length does an incoming req see
system.mem_ctrls1.rdQLenPdf::10                     0                       # What read queue length does an incoming req see
system.mem_ctrls1.rdQLenPdf::11                     0                       # What read queue length does an incoming req see
system.mem_ctrls1.rdQLenPdf::12                     0                       # What read queue length does an incoming req see
system.mem_ctrls1.rdQLenPdf::13                     0                       # What read queue length does an incoming req see
system.mem_ctrls1.rdQLenPdf::14                     0                       # What read queue length does an incoming req see
system.mem_ctrls1.rdQLenPdf::15                     0                       # What read queue length does an incoming req see
system.mem_ctrls1.rdQLenPdf::16                     0                       # What read queue length does an incoming req see
system.mem_ctrls1.rdQLenPdf::17                     0                       # What read queue length does an incoming req see
system.mem_ctrls1.rdQLenPdf::18                     0                       # What read queue length does an incoming req see
system.mem_ctrls1.rdQLenPdf::19                     0                       # What read queue length does an incoming req see
system.mem_ctrls1.rdQLenPdf::20                     0                       # What read queue length does an incoming req see
system.mem_ctrls1.rdQLenPdf::21                     0                       # What read queue length does an incoming req see
system.mem_ctrls1.rdQLenPdf::22                     0                       # What read queue length does an incoming req see
system.mem_ctrls1.rdQLenPdf::23                     0                       # What read queue length does an incoming req see
system.mem_ctrls1.rdQLenPdf::24                     0                       # What read queue length does an incoming req see
system.mem_ctrls1.rdQLenPdf::25                     0                       # What read queue length does an incoming req see
system.mem_ctrls1.rdQLenPdf::26                     0                       # What read queue length does an incoming req see
system.mem_ctrls1.rdQLenPdf::27                     0                       # What read queue length does an incoming req see
system.mem_ctrls1.rdQLenPdf::28                     0                       # What read queue length does an incoming req see
system.mem_ctrls1.rdQLenPdf::29                     0                       # What read queue length does an incoming req see
system.mem_ctrls1.rdQLenPdf::30                     0                       # What read queue length does an incoming req see
system.mem_ctrls1.rdQLenPdf::31                     0                       # What read queue length does an incoming req see
system.mem_ctrls1.wrQLenPdf::0                      2                       # What write queue length does an incoming req see
system.mem_ctrls1.wrQLenPdf::1                      2                       # What write queue length does an incoming req see
system.mem_ctrls1.wrQLenPdf::2                      2                       # What write queue length does an incoming req see
system.mem_ctrls1.wrQLenPdf::3                      2                       # What write queue length does an incoming req see
system.mem_ctrls1.wrQLenPdf::4                      2                       # What write queue length does an incoming req see
system.mem_ctrls1.wrQLenPdf::5                      2                       # What write queue length does an incoming req see
system.mem_ctrls1.wrQLenPdf::6                      2                       # What write queue length does an incoming req see
system.mem_ctrls1.wrQLenPdf::7                      2                       # What write queue length does an incoming req see
system.mem_ctrls1.wrQLenPdf::8                      2                       # What write queue length does an incoming req see
system.mem_ctrls1.wrQLenPdf::9                      2                       # What write queue length does an incoming req see
system.mem_ctrls1.wrQLenPdf::10                     2                       # What write queue length does an incoming req see
system.mem_ctrls1.wrQLenPdf::11                     2                       # What write queue length does an incoming req see
system.mem_ctrls1.wrQLenPdf::12                     2                       # What write queue length does an incoming req see
system.mem_ctrls1.wrQLenPdf::13                     2                       # What write queue length does an incoming req see
system.mem_ctrls1.wrQLenPdf::14                     2                       # What write queue length does an incoming req see
system.mem_ctrls1.wrQLenPdf::15                   130                       # What write queue length does an incoming req see
system.mem_ctrls1.wrQLenPdf::16                   129                       # What write queue length does an incoming req see
system.mem_ctrls1.wrQLenPdf::17                   134                       # What write queue length does an incoming req see
system.mem_ctrls1.wrQLenPdf::18                   135                       # What write queue length does an incoming req see
system.mem_ctrls1.wrQLenPdf::19                   135                       # What write queue length does an incoming req see
system.mem_ctrls1.wrQLenPdf::20                   135                       # What write queue length does an incoming req see
system.mem_ctrls1.wrQLenPdf::21                   135                       # What write queue length does an incoming req see
system.mem_ctrls1.wrQLenPdf::22                   135                       # What write queue length does an incoming req see
system.mem_ctrls1.wrQLenPdf::23                   136                       # What write queue length does an incoming req see
system.mem_ctrls1.wrQLenPdf::24                   136                       # What write queue length does an incoming req see
system.mem_ctrls1.wrQLenPdf::25                   135                       # What write queue length does an incoming req see
system.mem_ctrls1.wrQLenPdf::26                   134                       # What write queue length does an incoming req see
system.mem_ctrls1.wrQLenPdf::27                   134                       # What write queue length does an incoming req see
system.mem_ctrls1.wrQLenPdf::28                   134                       # What write queue length does an incoming req see
system.mem_ctrls1.wrQLenPdf::29                   134                       # What write queue length does an incoming req see
system.mem_ctrls1.wrQLenPdf::30                   134                       # What write queue length does an incoming req see
system.mem_ctrls1.wrQLenPdf::31                   134                       # What write queue length does an incoming req see
system.mem_ctrls1.wrQLenPdf::32                   134                       # What write queue length does an incoming req see
system.mem_ctrls1.wrQLenPdf::33                     1                       # What write queue length does an incoming req see
system.mem_ctrls1.wrQLenPdf::34                     0                       # What write queue length does an incoming req see
system.mem_ctrls1.wrQLenPdf::35                     0                       # What write queue length does an incoming req see
system.mem_ctrls1.wrQLenPdf::36                     0                       # What write queue length does an incoming req see
system.mem_ctrls1.wrQLenPdf::37                     0                       # What write queue length does an incoming req see
system.mem_ctrls1.wrQLenPdf::38                     0                       # What write queue length does an incoming req see
system.mem_ctrls1.wrQLenPdf::39                     0                       # What write queue length does an incoming req see
system.mem_ctrls1.wrQLenPdf::40                     0                       # What write queue length does an incoming req see
system.mem_ctrls1.wrQLenPdf::41                     0                       # What write queue length does an incoming req see
system.mem_ctrls1.wrQLenPdf::42                     0                       # What write queue length does an incoming req see
system.mem_ctrls1.wrQLenPdf::43                     0                       # What write queue length does an incoming req see
system.mem_ctrls1.wrQLenPdf::44                     0                       # What write queue length does an incoming req see
system.mem_ctrls1.wrQLenPdf::45                     0                       # What write queue length does an incoming req see
system.mem_ctrls1.wrQLenPdf::46                     0                       # What write queue length does an incoming req see
system.mem_ctrls1.wrQLenPdf::47                     0                       # What write queue length does an incoming req see
system.mem_ctrls1.wrQLenPdf::48                     0                       # What write queue length does an incoming req see
system.mem_ctrls1.wrQLenPdf::49                     0                       # What write queue length does an incoming req see
system.mem_ctrls1.wrQLenPdf::50                     0                       # What write queue length does an incoming req see
system.mem_ctrls1.wrQLenPdf::51                     0                       # What write queue length does an incoming req see
system.mem_ctrls1.wrQLenPdf::52                     0                       # What write queue length does an incoming req see
system.mem_ctrls1.wrQLenPdf::53                     0                       # What write queue length does an incoming req see
system.mem_ctrls1.wrQLenPdf::54                     0                       # What write queue length does an incoming req see
system.mem_ctrls1.wrQLenPdf::55                     0                       # What write queue length does an incoming req see
system.mem_ctrls1.wrQLenPdf::56                     0                       # What write queue length does an incoming req see
system.mem_ctrls1.wrQLenPdf::57                     0                       # What write queue length does an incoming req see
system.mem_ctrls1.wrQLenPdf::58                     0                       # What write queue length does an incoming req see
system.mem_ctrls1.wrQLenPdf::59                     0                       # What write queue length does an incoming req see
system.mem_ctrls1.wrQLenPdf::60                     0                       # What write queue length does an incoming req see
system.mem_ctrls1.wrQLenPdf::61                     0                       # What write queue length does an incoming req see
system.mem_ctrls1.wrQLenPdf::62                     0                       # What write queue length does an incoming req see
system.mem_ctrls1.wrQLenPdf::63                     0                       # What write queue length does an incoming req see
system.mem_ctrls1.bytesPerActivate::samples        16845                       # Bytes accessed per row activation
system.mem_ctrls1.bytesPerActivate::mean   164.029207                       # Bytes accessed per row activation
system.mem_ctrls1.bytesPerActivate::gmean   116.448608                       # Bytes accessed per row activation
system.mem_ctrls1.bytesPerActivate::stdev   176.150354                       # Bytes accessed per row activation
system.mem_ctrls1.bytesPerActivate::64-127         8722     51.78%     51.78% # Bytes accessed per row activation
system.mem_ctrls1.bytesPerActivate::128-191         3072     18.24%     70.01% # Bytes accessed per row activation
system.mem_ctrls1.bytesPerActivate::192-255         2037     12.09%     82.11% # Bytes accessed per row activation
system.mem_ctrls1.bytesPerActivate::256-319          794      4.71%     86.82% # Bytes accessed per row activation
system.mem_ctrls1.bytesPerActivate::320-383          285      1.69%     88.51% # Bytes accessed per row activation
system.mem_ctrls1.bytesPerActivate::384-447          800      4.75%     93.26% # Bytes accessed per row activation
system.mem_ctrls1.bytesPerActivate::448-511          101      0.60%     93.86% # Bytes accessed per row activation
system.mem_ctrls1.bytesPerActivate::512-575          114      0.68%     94.54% # Bytes accessed per row activation
system.mem_ctrls1.bytesPerActivate::576-639           65      0.39%     94.92% # Bytes accessed per row activation
system.mem_ctrls1.bytesPerActivate::640-703          112      0.66%     95.59% # Bytes accessed per row activation
system.mem_ctrls1.bytesPerActivate::704-767          102      0.61%     96.19% # Bytes accessed per row activation
system.mem_ctrls1.bytesPerActivate::768-831          232      1.38%     97.57% # Bytes accessed per row activation
system.mem_ctrls1.bytesPerActivate::832-895          162      0.96%     98.53% # Bytes accessed per row activation
system.mem_ctrls1.bytesPerActivate::896-959          246      1.46%     99.99% # Bytes accessed per row activation
system.mem_ctrls1.bytesPerActivate::960-1023            1      0.01%    100.00% # Bytes accessed per row activation
system.mem_ctrls1.bytesPerActivate::total        16845                       # Bytes accessed per row activation
system.mem_ctrls1.rdPerTurnAround::samples          135                       # Reads before turning the bus around for writes
system.mem_ctrls1.rdPerTurnAround::mean    301.555556                       # Reads before turning the bus around for writes
system.mem_ctrls1.rdPerTurnAround::stdev  2485.808048                       # Reads before turning the bus around for writes
system.mem_ctrls1.rdPerTurnAround::0-1023          134     99.26%     99.26% # Reads before turning the bus around for writes
system.mem_ctrls1.rdPerTurnAround::28672-29695            1      0.74%    100.00% # Reads before turning the bus around for writes
system.mem_ctrls1.rdPerTurnAround::total          135                       # Reads before turning the bus around for writes
system.mem_ctrls1.wrPerTurnAround::samples          135                       # Writes before turning the bus around for reads
system.mem_ctrls1.wrPerTurnAround::mean     17.911111                       # Writes before turning the bus around for reads
system.mem_ctrls1.wrPerTurnAround::gmean    17.904740                       # Writes before turning the bus around for reads
system.mem_ctrls1.wrPerTurnAround::stdev     0.464672                       # Writes before turning the bus around for reads
system.mem_ctrls1.wrPerTurnAround::16               7      5.19%      5.19% # Writes before turning the bus around for reads
system.mem_ctrls1.wrPerTurnAround::18             126     93.33%     98.52% # Writes before turning the bus around for reads
system.mem_ctrls1.wrPerTurnAround::19               2      1.48%    100.00% # Writes before turning the bus around for reads
system.mem_ctrls1.wrPerTurnAround::total          135                       # Writes before turning the bus around for reads
system.mem_ctrls1.totQLat                  3438637028                       # Total ticks spent queuing
system.mem_ctrls1.totMemAccLat             4202812028                       # Total ticks spent from burst creation until serviced by the DRAM
system.mem_ctrls1.totBusLat                 203780000                       # Total ticks spent in databus transfers
system.mem_ctrls1.avgQLat                    84371.31                       # Average queueing delay per DRAM burst
system.mem_ctrls1.avgBusLat                   5000.00                       # Average bus latency per DRAM burst
system.mem_ctrls1.avgMemAccLat              103121.31                       # Average memory access latency per DRAM burst
system.mem_ctrls1.avgRdBW                        2.46                       # Average DRAM read bandwidth in MiByte/s
system.mem_ctrls1.avgWrBW                        0.15                       # Average achieved write bandwidth in MiByte/s
system.mem_ctrls1.avgRdBWSys                     2.50                       # Average system read bandwidth in MiByte/s
system.mem_ctrls1.avgWrBWSys                     0.15                       # Average system write bandwidth in MiByte/s
system.mem_ctrls1.peakBW                     12800.00                       # Theoretical peak bandwidth in MiByte/s
system.mem_ctrls1.busUtil                        0.02                       # Data bus utilization in percentage
system.mem_ctrls1.busUtilRead                    0.02                       # Data bus utilization in percentage for reads
system.mem_ctrls1.busUtilWrite                   0.00                       # Data bus utilization in percentage for writes
system.mem_ctrls1.avgRdQLen                      1.00                       # Average read queue length when enqueuing
system.mem_ctrls1.avgWrQLen                     13.21                       # Average write queue length when enqueuing
system.mem_ctrls1.readRowHits                   25923                       # Number of row buffer hits during reads
system.mem_ctrls1.writeRowHits                    405                       # Number of row buffer hits during writes
system.mem_ctrls1.readRowHitRate                63.61                       # Row buffer hit rate for reads
system.mem_ctrls1.writeRowHitRate               16.57                       # Row buffer hit rate for writes
system.mem_ctrls1.avgGap                  24153055.71                       # Average gap between requests
system.mem_ctrls1.pageHitRate                   60.94                       # Row buffer hit rate, read and write combined
system.mem_ctrls1_0.actEnergy                54770940                       # Energy for activate commands per rank (pJ)
system.mem_ctrls1_0.preEnergy                29111445                       # Energy for precharge commands per rank (pJ)
system.mem_ctrls1_0.readEnergy              140322420                       # Energy for read commands per rank (pJ)
system.mem_ctrls1_0.writeEnergy               5663700                       # Energy for write commands per rank (pJ)
system.mem_ctrls1_0.refreshEnergy        5847684960.000001                       # Energy for refresh commands per rank (pJ)
system.mem_ctrls1_0.actBackEnergy          1647699570                       # Energy for active background per rank (pJ)
system.mem_ctrls1_0.preBackEnergy           352937760                       # Energy for precharge background per rank (pJ)
system.mem_ctrls1_0.actPowerDownEnergy    12833801370                       # Energy for active power-down per rank (pJ)
system.mem_ctrls1_0.prePowerDownEnergy     8650890720                       # Energy for precharge power-down per rank (pJ)
system.mem_ctrls1_0.selfRefreshEnergy    242312889660                       # Energy for self refresh per rank (pJ)
system.mem_ctrls1_0.totalEnergy          271876263105                       # Total energy per rank (pJ)
system.mem_ctrls1_0.averagePower           256.765192                       # Core power per rank (mW)
system.mem_ctrls1_0.totalIdleTime        1054293553504                       # Total Idle time Per DRAM Rank
system.mem_ctrls1_0.memoryStateTime::IDLE    714145133                       # Time in different power states
system.mem_ctrls1_0.memoryStateTime::REF   2489366000                       # Time in different power states
system.mem_ctrls1_0.memoryStateTime::SREF 1003645463627                       # Time in different power states
system.mem_ctrls1_0.memoryStateTime::PRE_PDN  22528336284                       # Time in different power states
system.mem_ctrls1_0.memoryStateTime::ACT   1330197505                       # Time in different power states
system.mem_ctrls1_0.memoryStateTime::ACT_PDN  28144202828                       # Time in different power states
system.mem_ctrls1_1.actEnergy                65509500                       # Energy for activate commands per rank (pJ)
system.mem_ctrls1_1.preEnergy                34815330                       # Energy for precharge commands per rank (pJ)
system.mem_ctrls1_1.readEnergy              150675420                       # Energy for read commands per rank (pJ)
system.mem_ctrls1_1.writeEnergy               6958260                       # Energy for write commands per rank (pJ)
system.mem_ctrls1_1.refreshEnergy        6947275920.000002                       # Energy for refresh commands per rank (pJ)
system.mem_ctrls1_1.actBackEnergy          1886641860                       # Energy for active background per rank (pJ)
system.mem_ctrls1_1.preBackEnergy           418775520                       # Energy for precharge background per rank (pJ)
system.mem_ctrls1_1.actPowerDownEnergy    15286157970                       # Energy for active power-down per rank (pJ)
system.mem_ctrls1_1.prePowerDownEnergy    10471798560                       # Energy for precharge power-down per rank (pJ)
system.mem_ctrls1_1.selfRefreshEnergy    239955160245                       # Energy for self refresh per rank (pJ)
system.mem_ctrls1_1.totalEnergy          275225499855                       # Total energy per rank (pJ)
system.mem_ctrls1_1.averagePower           259.928276                       # Core power per rank (mW)
system.mem_ctrls1_1.totalIdleTime        1053613593596                       # Total Idle time Per DRAM Rank
system.mem_ctrls1_1.memoryStateTime::IDLE    848701602                       # Time in different power states
system.mem_ctrls1_1.memoryStateTime::REF   2957200000                       # Time in different power states
system.mem_ctrls1_1.memoryStateTime::SREF 992827289267                       # Time in different power states
system.mem_ctrls1_1.memoryStateTime::PRE_PDN  27270229579                       # Time in different power states
system.mem_ctrls1_1.memoryStateTime::ACT   1426062069                       # Time in different power states
system.mem_ctrls1_1.memoryStateTime::ACT_PDN  33522228860                       # Time in different power states
system.pwrStateResidencyTicks::UNDEFINED 176610135833244                       # Cumulative time (in ticks) in various power states
system.cpu.branchPred.lookups                       4                       # Number of BP lookups
system.cpu.branchPred.condPredicted                 2                       # Number of conditional branches predicted
system.cpu.branchPred.condIncorrect                 1                       # Number of conditional branches incorrect
system.cpu.branchPred.BTBLookups                    2                       # Number of BTB lookups
system.cpu.branchPred.BTBHits                       0                       # Number of BTB hits
system.cpu.branchPred.BTBCorrect                    0                       # Number of correct BTB predictions (this stat may not work properly.
system.cpu.branchPred.BTBHitPct              0.000000                       # BTB Hit Percentage
system.cpu.branchPred.usedRAS                       0                       # Number of times the RAS was used to get a target.
system.cpu.branchPred.RASInCorrect                  0                       # Number of incorrect RAS predictions.
system.cpu.branchPred.indirectLookups               0                       # Number of indirect predictor lookups.
system.cpu.branchPred.indirectHits                  0                       # Number of indirect target hits.
system.cpu.branchPred.indirectMisses                0                       # Number of indirect misses.
system.cpu.branchPredindirectMispredicted            0                       # Number of mispredicted indirect branches.
system.cpu_voltage_domain.voltage                   1                       # Voltage in Volts
system.cpu_clk_domain.clock                       333                       # Clock period in ticks
system.cpu.dtb.fetch_hits                           0                       # ITB hits
system.cpu.dtb.fetch_misses                         0                       # ITB misses
system.cpu.dtb.fetch_acv                            0                       # ITB acv
system.cpu.dtb.fetch_accesses                       0                       # ITB accesses
system.cpu.dtb.read_hits                           10                       # DTB read hits
system.cpu.dtb.read_misses                          0                       # DTB read misses
system.cpu.dtb.read_acv                             0                       # DTB read access violations
system.cpu.dtb.read_accesses                       10                       # DTB read accesses
system.cpu.dtb.write_hits                           0                       # DTB write hits
system.cpu.dtb.write_misses                         0                       # DTB write misses
system.cpu.dtb.write_acv                            0                       # DTB write access violations
system.cpu.dtb.write_accesses                       0                       # DTB write accesses
system.cpu.dtb.data_hits                           10                       # DTB hits
system.cpu.dtb.data_misses                          0                       # DTB misses
system.cpu.dtb.data_acv                             0                       # DTB access violations
system.cpu.dtb.data_accesses                       10                       # DTB accesses
system.cpu.itb.fetch_hits                           5                       # ITB hits
system.cpu.itb.fetch_misses                         0                       # ITB misses
system.cpu.itb.fetch_acv                            0                       # ITB acv
system.cpu.itb.fetch_accesses                       5                       # ITB accesses
system.cpu.itb.read_hits                            0                       # DTB read hits
system.cpu.itb.read_misses                          0                       # DTB read misses
system.cpu.itb.read_acv                             0                       # DTB read access violations
system.cpu.itb.read_accesses                        0                       # DTB read accesses
system.cpu.itb.write_hits                           0                       # DTB write hits
system.cpu.itb.write_misses                         0                       # DTB write misses
system.cpu.itb.write_acv                            0                       # DTB write access violations
system.cpu.itb.write_accesses                       0                       # DTB write accesses
system.cpu.itb.data_hits                            0                       # DTB hits
system.cpu.itb.data_misses                          0                       # DTB misses
system.cpu.itb.data_acv                             0                       # DTB access violations
system.cpu.itb.data_accesses                        0                       # DTB accesses
system.cpu.workload.num_syscalls                    0                       # Number of system calls
system.cpu.pwrStateResidencyTicks::ON    1058851711377                       # Cumulative time (in ticks) in various power states
system.cpu.numCycles                              971                       # number of cpu cycles simulated
system.cpu.numWorkItemsStarted                      0                       # number of work items this cpu started
system.cpu.numWorkItemsCompleted                    0                       # number of work items this cpu completed
system.cpu.fetch.icacheStallCycles                 49                       # Number of cycles fetch is stalled on an Icache miss
system.cpu.fetch.Insts                             32                       # Number of instructions fetch has processed
system.cpu.fetch.Branches                           4                       # Number of branches that fetch encountered
system.cpu.fetch.Cycles                             4                       # Number of cycles fetch has run and was not squashing or blocked
system.cpu.fetch.SquashCycles                       5                       # Number of cycles fetch has spent squashing
system.cpu.fetch.PendingDrainCycles                 7                       # Number of cycles fetch has spent waiting on pipes to drain
system.cpu.fetch.CacheLines                         5                       # Number of cache lines fetched
system.cpu.fetch.IcacheSquashes                     3                       # Number of outstanding Icache misses that were squashed
system.cpu.fetch.rateDist::samples                 62                       # Number of instructions fetched each cycle (Total)
system.cpu.fetch.rateDist::mean              0.516129                       # Number of instructions fetched each cycle (Total)
system.cpu.fetch.rateDist::stdev             1.981405                       # Number of instructions fetched each cycle (Total)
system.cpu.fetch.rateDist::underflows               0      0.00%      0.00% # Number of instructions fetched each cycle (Total)
system.cpu.fetch.rateDist::0                       58     93.55%     93.55% # Number of instructions fetched each cycle (Total)
system.cpu.fetch.rateDist::1                        0      0.00%     93.55% # Number of instructions fetched each cycle (Total)
system.cpu.fetch.rateDist::2                        0      0.00%     93.55% # Number of instructions fetched each cycle (Total)
system.cpu.fetch.rateDist::3                        0      0.00%     93.55% # Number of instructions fetched each cycle (Total)
system.cpu.fetch.rateDist::4                        0      0.00%     93.55% # Number of instructions fetched each cycle (Total)
system.cpu.fetch.rateDist::5                        0      0.00%     93.55% # Number of instructions fetched each cycle (Total)
system.cpu.fetch.rateDist::6                        0      0.00%     93.55% # Number of instructions fetched each cycle (Total)
system.cpu.fetch.rateDist::7                        0      0.00%     93.55% # Number of instructions fetched each cycle (Total)
system.cpu.fetch.rateDist::8                        4      6.45%    100.00% # Number of instructions fetched each cycle (Total)
[...]
system.switch_cpus_1.iq.int_inst_queue_writes    223859291                       # Number of integer instruction queue writes
system.switch_cpus_1.iq.int_inst_queue_wakeup_accesses    206591720                       # Number of integer instruction queue wakeup accesses
system.switch_cpus_1.iq.fp_inst_queue_reads      2764213                       # Number of floating instruction queue reads
system.switch_cpus_1.iq.fp_inst_queue_writes      1435539                       # Number of floating instruction queue writes
system.switch_cpus_1.iq.fp_inst_queue_wakeup_accesses      1372118                       # Number of floating instruction queue wakeup accesses
system.switch_cpus_1.iq.int_alu_accesses    218675953                       # Number of integer alu accesses
system.switch_cpus_1.iq.fp_alu_accesses       1386018                       # Number of floating point alu accesses
system.switch_cpus_1.iew.lsq.thread0.forwLoads      2833284                       # Number of loads that had data forwarded from stores
system.switch_cpus_1.iew.lsq.thread0.invAddrLoads            0                       # Number of loads ignored due to an invalid address
system.switch_cpus_1.iew.lsq.thread0.squashedLoads      2651653                       # Number of loads squashed
system.switch_cpus_1.iew.lsq.thread0.ignoredResponses         6917                       # Number of memory responses ignored because the instruction is squashed
system.switch_cpus_1.iew.lsq.thread0.memOrderViolation        15924                       # Number of memory ordering violations
system.switch_cpus_1.iew.lsq.thread0.squashedStores       577596                       # Number of stores squashed
system.switch_cpus_1.iew.lsq.thread0.invAddrSwpfs            0                       # Number of software prefetches ignored due to an invalid address
system.switch_cpus_1.iew.lsq.thread0.blockedLoads            0                       # Number of blocked loads due to partial load-store forwarding
system.switch_cpus_1.iew.lsq.thread0.rescheduledLoads         1093                       # Number of loads that were rescheduled
system.switch_cpus_1.iew.lsq.thread0.cacheBlocked       534434                       # Number of times an access to memory failed due to the cache being blocked
system.switch_cpus_1.iew.iewIdleCycles              0                       # Number of cycles IEW is idle
system.switch_cpus_1.iew.iewSquashCycles       313512                       # Number of cycles IEW is squashing
system.switch_cpus_1.iew.iewBlockCycles       1986727                       # Number of cycles IEW is blocking
system.switch_cpus_1.iew.iewUnblockCycles      3058380                       # Number of cycles IEW is unblocking
system.switch_cpus_1.iew.iewDispatchedInsts    213820586                       # Number of instructions dispatched to IQ
system.switch_cpus_1.iew.iewDispSquashedInsts        56103                       # Number of squashed instructions skipped by dispatch
system.switch_cpus_1.iew.iewDispLoadInsts     72319128                       # Number of dispatched load instructions
system.switch_cpus_1.iew.iewDispStoreInsts     13488018                       # Number of dispatched store instructions
system.switch_cpus_1.iew.iewDispNonSpecInsts            0                       # Number of dispatched non-speculative instructions
system.switch_cpus_1.iew.iewIQFullEvents        15233                       # Number of times the IQ has become full, causing a stall
system.switch_cpus_1.iew.iewLSQFullEvents      3045887                       # Number of times the LSQ has become full, causing a stall
system.switch_cpus_1.iew.memOrderViolationEvents        15924                       # Number of memory order violations
system.switch_cpus_1.iew.predictedTakenIncorrect       222554                       # Number of branches that were predicted taken incorrectly
system.switch_cpus_1.iew.predictedNotTakenIncorrect        80854                       # Number of branches that were predicted not taken incorrectly
system.switch_cpus_1.iew.branchMispredicts       303408                       # Number of branch mispredicts detected at execute
system.switch_cpus_1.iew.iewExecutedInsts    209095876                       # Number of executed instructions
system.switch_cpus_1.iew.iewExecLoadInsts     72148066                       # Number of load instructions executed
system.switch_cpus_1.iew.iewExecSquashedInsts       527143                       # Number of squashed instructions skipped in execute
system.switch_cpus_1.iew.exec_swp                   0                       # number of swp insts executed
system.switch_cpus_1.iew.exec_nop             1181006                       # number of nop insts executed
system.switch_cpus_1.iew.exec_refs           85273131                       # number of memory reference insts executed
system.switch_cpus_1.iew.exec_branches       15245086                       # Number of branches executed
system.switch_cpus_1.iew.exec_stores         13125065                       # Number of stores executed
system.switch_cpus_1.iew.exec_rate           2.340006                       # Inst execution rate
system.switch_cpus_1.iew.wb_sent            208238466                       # cumulative count of insts sent to commit
system.switch_cpus_1.iew.wb_count           207963838                       # cumulative count of insts written-back
system.switch_cpus_1.iew.wb_producers       134630003                       # num instructions producing a value
system.switch_cpus_1.iew.wb_consumers       164838197                       # num instructions consuming a value
system.switch_cpus_1.iew.wb_rate             2.327337                       # insts written-back per cycle
system.switch_cpus_1.iew.wb_fanout           0.816740                       # average fanout of values written-back
system.switch_cpus_1.commit.commitSquashedInsts     12256596                       # The number of squashed insts skipped by commit
system.switch_cpus_1.commit.branchMispredicts       273487                       # The number of times a branch was mispredicted
system.switch_cpus_1.commit.committed_per_cycle::samples     86851141                       # Number of insts commited each cycle
system.switch_cpus_1.commit.committed_per_cycle::mean     2.315060                       # Number of insts commited each cycle
system.switch_cpus_1.commit.committed_per_cycle::stdev     3.085319                       # Number of insts commited each cycle
system.switch_cpus_1.commit.committed_per_cycle::underflows            0      0.00%      0.00% # Number of insts commited each cycle
system.switch_cpus_1.commit.committed_per_cycle::0     44226573     50.92%     50.92% # Number of insts commited each cycle
system.switch_cpus_1.commit.committed_per_cycle::1      9385236     10.81%     61.73% # Number of insts commited each cycle
system.switch_cpus_1.commit.committed_per_cycle::2      4772650      5.50%     67.22% # Number of insts commited each cycle
system.switch_cpus_1.commit.committed_per_cycle::3      3487589      4.02%     71.24% # Number of insts commited each cycle
system.switch_cpus_1.commit.committed_per_cycle::4      2515304      2.90%     74.14% # Number of insts commited each cycle
system.switch_cpus_1.commit.committed_per_cycle::5      3800356      4.38%     78.51% # Number of insts commited each cycle
system.switch_cpus_1.commit.committed_per_cycle::6      1563228      1.80%     80.31% # Number of insts commited each cycle
system.switch_cpus_1.commit.committed_per_cycle::7      3571722      4.11%     84.42% # Number of insts commited each cycle
system.switch_cpus_1.commit.committed_per_cycle::8     13528483     15.58%    100.00% # Number of insts commited each cycle
system.switch_cpus_1.commit.committed_per_cycle::overflows            0      0.00%    100.00% # Number of insts commited each cycle
system.switch_cpus_1.commit.committed_per_cycle::min_value            0                       # Number of insts commited each cycle
system.switch_cpus_1.commit.committed_per_cycle::max_value            8                       # Number of insts commited each cycle
system.switch_cpus_1.commit.committed_per_cycle::total     86851141                       # Number of insts commited each cycle
system.switch_cpus_1.commit.committedInsts    201065585                       # Number of instructions committed
system.switch_cpus_1.commit.committedOps    201065585                       # Number of ops (including micro ops) committed
system.switch_cpus_1.commit.swp_count               0                       # Number of s/w prefetches committed
system.switch_cpus_1.commit.refs             82577871                       # Number of memory references committed
system.switch_cpus_1.commit.loads            69667449                       # Number of loads committed
system.switch_cpus_1.commit.membars                 0                       # Number of memory barriers committed
system.switch_cpus_1.commit.branches         14245931                       # Number of branches committed
system.switch_cpus_1.commit.fp_insts          1340565                       # Number of committed floating point instructions.
system.switch_cpus_1.commit.int_insts       198509910                       # Number of committed integer instructions.
system.switch_cpus_1.commit.function_calls      2072159                       # Number of function calls committed.
system.switch_cpus_1.commit.op_class_0::No_OpClass      1225977      0.61%      0.61% # Class of committed instruction
system.switch_cpus_1.commit.op_class_0::IntAlu    115514890     57.45%     58.06% # Class of committed instruction
system.switch_cpus_1.commit.op_class_0::IntMult       939115      0.47%     58.53% # Class of committed instruction
system.switch_cpus_1.commit.op_class_0::IntDiv            0      0.00%     58.53% # Class of committed instruction
system.switch_cpus_1.commit.op_class_0::FloatAdd       455806      0.23%     58.75% # Class of committed instruction
system.switch_cpus_1.commit.op_class_0::FloatCmp        10815      0.01%     58.76% # Class of committed instruction
system.switch_cpus_1.commit.op_class_0::FloatCvt       252849      0.13%     58.89% # Class of committed instruction
system.switch_cpus_1.commit.op_class_0::FloatMult         8058      0.00%     58.89% # Class of committed instruction
system.switch_cpus_1.commit.op_class_0::FloatMultAcc            0      0.00%     58.89% # Class of committed instruction
system.switch_cpus_1.commit.op_class_0::FloatDiv        80200      0.04%     58.93% # Class of committed instruction
system.switch_cpus_1.commit.op_class_0::FloatMisc            0      0.00%     58.93% # Class of committed instruction
system.switch_cpus_1.commit.op_class_0::FloatSqrt            4      0.00%     58.93% # Class of committed instruction
system.switch_cpus_1.commit.op_class_0::SimdAdd            0      0.00%     58.93% # Class of committed instruction
system.switch_cpus_1.commit.op_class_0::SimdAddAcc            0      0.00%     58.93% # Class of committed instruction
system.switch_cpus_1.commit.op_class_0::SimdAlu            0      0.00%     58.93% # Class of committed instruction
system.switch_cpus_1.commit.op_class_0::SimdCmp            0      0.00%     58.93% # Class of committed instruction
system.switch_cpus_1.commit.op_class_0::SimdCvt            0      0.00%     58.93% # Class of committed instruction
system.switch_cpus_1.commit.op_class_0::SimdMisc            0      0.00%     58.93% # Class of committed instruction
system.switch_cpus_1.commit.op_class_0::SimdMult            0      0.00%     58.93% # Class of committed instruction
system.switch_cpus_1.commit.op_class_0::SimdMultAcc            0      0.00%     58.93% # Class of committed instruction
system.switch_cpus_1.commit.op_class_0::SimdShift            0      0.00%     58.93% # Class of committed instruction
system.switch_cpus_1.commit.op_class_0::SimdShiftAcc            0      0.00%     58.93% # Class of committed instruction
system.switch_cpus_1.commit.op_class_0::SimdSqrt            0      0.00%     58.93% # Class of committed instruction
system.switch_cpus_1.commit.op_class_0::SimdFloatAdd            0      0.00%     58.93% # Class of committed instruction
system.switch_cpus_1.commit.op_class_0::SimdFloatAlu            0      0.00%     58.93% # Class of committed instruction
system.switch_cpus_1.commit.op_class_0::SimdFloatCmp            0      0.00%     58.93% # Class of committed instruction
system.switch_cpus_1.commit.op_class_0::SimdFloatCvt            0      0.00%     58.93% # Class of committed instruction
system.switch_cpus_1.commit.op_class_0::SimdFloatDiv            0      0.00%     58.93% # Class of committed instruction
system.switch_cpus_1.commit.op_class_0::SimdFloatMisc            0      0.00%     58.93% # Class of committed instruction
system.switch_cpus_1.commit.op_class_0::SimdFloatMult            0      0.00%     58.93% # Class of committed instruction
system.switch_cpus_1.commit.op_class_0::SimdFloatMultAcc            0      0.00%     58.93% # Class of committed instruction
system.switch_cpus_1.commit.op_class_0::SimdFloatSqrt            0      0.00%     58.93% # Class of committed instruction
system.switch_cpus_1.commit.op_class_0::MemRead     69394564     34.51%     93.44% # Class of committed instruction
system.switch_cpus_1.commit.op_class_0::MemWrite     12650474      6.29%     99.73% # Class of committed instruction
system.switch_cpus_1.commit.op_class_0::FloatMemRead       272885      0.14%     99.87% # Class of committed instruction
system.switch_cpus_1.commit.op_class_0::FloatMemWrite       259948      0.13%    100.00% # Class of committed instruction
system.switch_cpus_1.commit.op_class_0::IprAccess            0      0.00%    100.00% # Class of committed instruction
system.switch_cpus_1.commit.op_class_0::InstPrefetch            0      0.00%    100.00% # Class of committed instruction
system.switch_cpus_1.commit.op_class_0::total    201065585                       # Class of committed instruction
system.switch_cpus_1.commit.bw_lim_events     13528483                       # number cycles where commit BW limit reached
system.switch_cpus_1.rob.rob_reads          286279708                       # The number of ROB reads
system.switch_cpus_1.rob.rob_writes         428337934                       # The number of ROB writes
system.switch_cpus_1.timesIdled                 16933                       # Number of times that the entire CPU went into an idle state and unscheduled itself
system.switch_cpus_1.idleCycles                814360                       # Total number of cycles that the CPU has spent unscheduled due to idling
system.switch_cpus_1.committedInsts         200000000                       # Number of Instructions Simulated
system.switch_cpus_1.committedOps           200000000                       # Number of Ops (including micro ops) Simulated
system.switch_cpus_1.cpi                     0.446785                       # CPI: Cycles Per Instruction
system.switch_cpus_1.cpi_total               0.446785                       # CPI: Total CPI of All Threads
system.switch_cpus_1.ipc                     2.238214                       # IPC: Instructions Per Cycle
system.switch_cpus_1.ipc_total               2.238214                       # IPC: Total IPC of All Threads
system.switch_cpus_1.int_regfile_reads      305264569                       # number of integer regfile reads
system.switch_cpus_1.int_regfile_writes     180710755                       # number of integer regfile writes
system.switch_cpus_1.fp_regfile_reads          984551                       # number of floating regfile reads
system.switch_cpus_1.fp_regfile_writes         922839                       # number of floating regfile writes
system.switch_cpus_1.misc_regfile_reads        167179                       # number of misc regfile reads
system.switch_cpus_1.misc_regfile_writes        80196                       # number of misc regfile writes
system.tol3bus.snoop_filter.tot_requests      3293612                       # Total number of requests made to the snoop filter.
system.tol3bus.snoop_filter.hit_single_requests      1644522                       # Number of requests hitting in the snoop filter with a single holder of the requested data.
system.tol3bus.snoop_filter.hit_multi_requests            0                       # Number of requests hitting in the snoop filter with multiple (>1) holders of the requested data.
system.tol3bus.snoop_filter.tot_snoops            141                       # Total number of snoops made to the snoop filter.
system.tol3bus.snoop_filter.hit_single_snoops          141                       # Number of snoops hitting in the snoop filter with a single holder of the requested data.
system.tol3bus.snoop_filter.hit_multi_snoops            0                       # Number of snoops hitting in the snoop filter with multiple (>1) holders of the requested data.
system.tol3bus.pwrStateResidencyTicks::UNDEFINED 176610135833244                       # Cumulative time (in ticks) in various power states
system.tol3bus.trans_dist::ReadResp            978973                       # Transaction distribution
system.tol3bus.trans_dist::WritebackDirty      1269993                       # Transaction distribution
system.tol3bus.trans_dist::CleanEvict          391267                       # Transaction distribution
system.tol3bus.trans_dist::UpgradeReq               3                       # Transaction distribution
system.tol3bus.trans_dist::UpgradeResp              3                       # Transaction distribution
system.tol3bus.trans_dist::ReadExReq           670117                       # Transaction distribution
system.tol3bus.trans_dist::ReadExResp          670117                       # Transaction distribution
system.tol3bus.trans_dist::ReadSharedReq       978973                       # Transaction distribution
system.tol3bus.pkt_count_system.cpu.l2.mem_side::system.l3.cpu_side      4942705                       # Packet count per connected master and slave (bytes)
system.tol3bus.pkt_size_system.cpu.l2.mem_side::system.l3.cpu_side    186519744                       # Cumulative packet size per connected master and slave (bytes)
system.tol3bus.snoops                           16741                       # Total snoops (count)
system.tol3bus.snoopTraffic                    301568                       # Total snoop traffic (bytes)
system.tol3bus.snoop_fanout::samples          1665834                       # Request fanout histogram
system.tol3bus.snoop_fanout::mean            0.000085                       # Request fanout histogram
system.tol3bus.snoop_fanout::stdev           0.009200                       # Request fanout histogram
system.tol3bus.snoop_fanout::underflows             0      0.00%      0.00% # Request fanout histogram
system.tol3bus.snoop_fanout::0                1665693     99.99%     99.99% # Request fanout histogram
system.tol3bus.snoop_fanout::1                    141      0.01%    100.00% # Request fanout histogram
system.tol3bus.snoop_fanout::overflows              0      0.00%    100.00% # Request fanout histogram
system.tol3bus.snoop_fanout::min_value              0                       # Request fanout histogram
system.tol3bus.snoop_fanout::max_value              1                       # Request fanout histogram
system.tol3bus.snoop_fanout::total            1665834                       # Request fanout histogram
system.tol3bus.reqLayer0.occupancy         1518111369                       # Layer occupancy (ticks)
system.tol3bus.reqLayer0.utilization              0.1                       # Layer utilization (%)
system.tol3bus.respLayer0.occupancy        1098294939                       # Layer occupancy (ticks)
system.tol3bus.respLayer0.utilization             0.1                       # Layer utilization (%)

---------- End Simulation Statistics   ----------
