
---------- Begin Simulation Statistics ----------
sim_seconds                                  1.718131                       # Number of seconds simulated
sim_ticks                                1718130890925                       # Number of ticks simulated
final_tick                               35021508815286                       # Number of ticks from beginning of simulation (restored from checkpoints and never reset)
sim_freq                                 1000000000000                       # Frequency of simulated ticks
host_inst_rate                                 552689                       # Simulator instruction rate (inst/s)
host_op_rate                                   552689                       # Simulator op (including micro ops) rate (op/s)
host_tick_rate                              791326511                       # Simulator tick rate (ticks/s)
host_mem_usage                                2568188                       # Number of bytes of host memory used
host_seconds                                  2171.20                       # Real time elapsed on the host
sim_insts                                  1200000009                       # Number of instructions simulated
sim_ops                                    1200000009                       # Number of ops (including micro ops) simulated
system.voltage_domain.voltage                       1                       # Voltage in Volts
system.clk_domain.clock                          1000                       # Clock period in ticks
system.mem_ctrls0.pwrStateResidencyTicks::UNDEFINED 35021508815286                       # Cumulative time (in ticks) in various power states
system.mem_ctrls0.bytes_read::cpu.inst            128                       # Number of bytes read from this memory
system.mem_ctrls0.bytes_read::cpu.data            192                       # Number of bytes read from this memory
system.mem_ctrls0.bytes_read::switch_cpus.inst         8064                       # Number of bytes read from this memory
system.mem_ctrls0.bytes_read::switch_cpus.data     86128256                       # Number of bytes read from this memory
system.mem_ctrls0.bytes_read::switch_cpus_1.inst           64                       # Number of bytes read from this memory
system.mem_ctrls0.bytes_read::switch_cpus_1.data     17665984                       # Number of bytes read from this memory
system.mem_ctrls0.bytes_read::total         103802688                       # Number of bytes read from this memory
system.mem_ctrls0.bytes_inst_read::cpu.inst          128                       # Number of instructions bytes read from this memory
system.mem_ctrls0.bytes_inst_read::switch_cpus.inst         8064                       # Number of instructions bytes read from this memory
system.mem_ctrls0.bytes_inst_read::switch_cpus_1.inst           64                       # Number of instructions bytes read from this memory
system.mem_ctrls0.bytes_inst_read::total         8256                       # Number of instructions bytes read from this memory
system.mem_ctrls0.bytes_written::writebacks     34992704                       # Number of bytes written to this memory
system.mem_ctrls0.bytes_written::total       34992704                       # Number of bytes written to this memory
system.mem_ctrls0.num_reads::cpu.inst               2                       # Number of read requests responded to by this memory
system.mem_ctrls0.num_reads::cpu.data               3                       # Number of read requests responded to by this memory
system.mem_ctrls0.num_reads::switch_cpus.inst          126                       # Number of read requests responded to by this memory
system.mem_ctrls0.num_reads::switch_cpus.data      1345754                       # Number of read requests responded to by this memory
system.mem_ctrls0.num_reads::switch_cpus_1.inst            1                       # Number of read requests responded to by this memory
system.mem_ctrls0.num_reads::switch_cpus_1.data       276031                       # Number of read requests responded to by this memory
system.mem_ctrls0.num_reads::total            1621917                       # Number of read requests responded to by this memory
system.mem_ctrls0.num_writes::writebacks       546761                       # Number of write requests responded to by this memory
system.mem_ctrls0.num_writes::total            546761                       # Number of write requests responded to by this memory
system.mem_ctrls0.bw_read::cpu.inst                74                       # Total read bandwidth from this memory (bytes/s)
system.mem_ctrls0.bw_read::cpu.data               112                       # Total read bandwidth from this memory (bytes/s)
system.mem_ctrls0.bw_read::switch_cpus.inst         4693                       # Total read bandwidth from this memory (bytes/s)
system.mem_ctrls0.bw_read::switch_cpus.data     50129042                       # Total read bandwidth from this memory (bytes/s)
system.mem_ctrls0.bw_read::switch_cpus_1.inst           37                       # Total read bandwidth from this memory (bytes/s)
system.mem_ctrls0.bw_read::switch_cpus_1.data     10282094                       # Total read bandwidth from this memory (bytes/s)
system.mem_ctrls0.bw_read::total             60416054                       # Total read bandwidth from this memory (bytes/s)
system.mem_ctrls0.bw_inst_read::cpu.inst           74                       # Instruction read bandwidth from this memory (bytes/s)
system.mem_ctrls0.bw_inst_read::switch_cpus.inst         4693                       # Instruction read bandwidth from this memory (bytes/s)
system.mem_ctrls0.bw_inst_read::switch_cpus_1.inst           37                       # Instruction read bandwidth from this memory (bytes/s)
system.mem_ctrls0.bw_inst_read::total            4805                       # Instruction read bandwidth from this memory (bytes/s)
system.mem_ctrls0.bw_write::writebacks       20366728                       # Write bandwidth from this memory (bytes/s)
system.mem_ctrls0.bw_write::total            20366728                       # Write bandwidth from this memory (bytes/s)
system.mem_ctrls0.bw_total::writebacks       20366728                       # Total bandwidth to/from this memory (bytes/s)
system.mem_ctrls0.bw_total::cpu.inst               74                       # Total bandwidth to/from this memory (bytes/s)
system.mem_ctrls0.bw_total::cpu.data              112                       # Total bandwidth to/from this memory (bytes/s)
system.mem_ctrls0.bw_total::switch_cpus.inst         4693                       # Total bandwidth to/from this memory (bytes/s)
system.mem_ctrls0.bw_total::switch_cpus.data     50129042                       # Total bandwidth to/from this memory (bytes/s)
system.mem_ctrls0.bw_total::switch_cpus_1.inst           37                       # Total bandwidth to/from this memory (bytes/s)
system.mem_ctrls0.bw_total::switch_cpus_1.data     10282094                       # Total bandwidth to/from this memory (bytes/s)
system.mem_ctrls0.bw_total::total            80782781                       # Total bandwidth to/from this memory (bytes/s)
system.mem_ctrls0.readReqs                    1621917                       # Number of read requests accepted
system.mem_ctrls0.writeReqs                    546761                       # Number of write requests accepted
system.mem_ctrls0.readBursts                  1621917                       # Number of DRAM read bursts, including those serviced by the write queue
system.mem_ctrls0.writeBursts                  546761                       # Number of DRAM write bursts, including those merged in the write queue
system.mem_ctrls0.bytesReadDRAM             103783360                       # Total number of bytes read from DRAM
system.mem_ctrls0.bytesReadWrQ                  19328                       # Total number of bytes read from write queue
system.mem_ctrls0.bytesWritten               34990656                       # Total number of bytes written to DRAM
system.mem_ctrls0.bytesReadSys              103802688                       # Total read bytes from the system interface side
system.mem_ctrls0.bytesWrittenSys            34992704                       # Total written bytes from the system interface side
system.mem_ctrls0.servicedByWrQ                   302                       # Number of DRAM read bursts serviced by the write queue
system.mem_ctrls0.mergedWrBursts                    0                       # Number of DRAM write bursts merged with an existing one
system.mem_ctrls0.neitherReadNorWriteReqs            0                       # Number of requests that are neither read nor write
system.mem_ctrls0.perBankRdBursts::0           105952                       # Per bank write bursts
system.mem_ctrls0.perBankRdBursts::1           103314                       # Per bank write bursts
system.mem_ctrls0.perBankRdBursts::2           103884                       # Per bank write bursts
system.mem_ctrls0.perBankRdBursts::3           101099                       # Per bank write bursts
system.mem_ctrls0.perBankRdBursts::4           101657                       # Per bank write bursts
system.mem_ctrls0.perBankRdBursts::5           101513                       # Per bank write bursts
system.mem_ctrls0.perBankRdBursts::6           101005                       # Per bank write bursts
system.mem_ctrls0.perBankRdBursts::7           101730                       # Per bank write bursts
system.mem_ctrls0.perBankRdBursts::8           100943                       # Per bank write bursts
system.mem_ctrls0.perBankRdBursts::9            99416                       # Per bank write bursts
system.mem_ctrls0.perBankRdBursts::10           99602                       # Per bank write bursts
system.mem_ctrls0.perBankRdBursts::11           99631                       # Per bank write bursts
system.mem_ctrls0.perBankRdBursts::12           98536                       # Per bank write bursts
system.mem_ctrls0.perBankRdBursts::13           98464                       # Per bank write bursts
system.mem_ctrls0.perBankRdBursts::14          100865                       # Per bank write bursts
system.mem_ctrls0.perBankRdBursts::15          104004                       # Per bank write bursts
system.mem_ctrls0.perBankWrBursts::0            36488                       # Per bank write bursts
system.mem_ctrls0.perBankWrBursts::1            35293                       # Per bank write bursts
system.mem_ctrls0.perBankWrBursts::2            34789                       # Per bank write bursts
system.mem_ctrls0.perBankWrBursts::3            33708                       # Per bank write bursts
system.mem_ctrls0.perBankWrBursts::4            33631                       # Per bank write bursts
system.mem_ctrls0.perBankWrBursts::5            33575                       # Per bank write bursts
system.mem_ctrls0.perBankWrBursts::6            33507                       # Per bank write bursts
system.mem_ctrls0.perBankWrBursts::7            34003                       # Per bank write bursts
system.mem_ctrls0.perBankWrBursts::8            33589                       # Per bank write bursts
system.mem_ctrls0.perBankWrBursts::9            33318                       # Per bank write bursts
system.mem_ctrls0.perBankWrBursts::10           33822                       # Per bank write bursts
system.mem_ctrls0.perBankWrBursts::11           33715                       # Per bank write bursts
system.mem_ctrls0.perBankWrBursts::12           33581                       # Per bank write bursts
system.mem_ctrls0.perBankWrBursts::13           33632                       # Per bank write bursts
system.mem_ctrls0.perBankWrBursts::14           34437                       # Per bank write bursts
system.mem_ctrls0.perBankWrBursts::15           35641                       # Per bank write bursts
system.mem_ctrls0.numRdRetry                        0                       # Number of times read queue was full causing retry
system.mem_ctrls0.numWrRetry                        0                       # Number of times write queue was full causing retry
system.mem_ctrls0.totGap                 1718130437712                       # Total gap between requests
system.mem_ctrls0.readPktSize::0                    0                       # Read request sizes (log2)
system.mem_ctrls0.readPktSize::1                    0                       # Read request sizes (log2)
system.mem_ctrls0.readPktSize::2                    0                       # Read request sizes (log2)
system.mem_ctrls0.readPktSize::3                    0                       # Read request sizes (log2)
system.mem_ctrls0.readPktSize::4                    0                       # Read request sizes (log2)
system.mem_ctrls0.readPktSize::5                    0                       # Read request sizes (log2)
system.mem_ctrls0.readPktSize::6              1621917                       # Read request sizes (log2)
system.mem_ctrls0.writePktSize::0                   0                       # Write request sizes (log2)
system.mem_ctrls0.writePktSize::1                   0                       # Write request sizes (log2)
system.mem_ctrls0.writePktSize::2                   0                       # Write request sizes (log2)
system.mem_ctrls0.writePktSize::3                   0                       # Write request sizes (log2)
system.mem_ctrls0.writePktSize::4                   0                       # Write request sizes (log2)
system.mem_ctrls0.writePktSize::5                   0                       # Write request sizes (log2)
system.mem_ctrls0.writePktSize::6              546761                       # Write request sizes (log2)
system.mem_ctrls0.rdQLenPdf::0                1535585                       # What read queue length does an incoming req see
system.mem_ctrls0.rdQLenPdf::1                  76793                       # What read queue length does an incoming req see
system.mem_ctrls0.rdQLenPdf::2                   8745                       # What read queue length does an incoming req see
system.mem_ctrls0.rdQLenPdf::3                    492                       # What read queue length does an incoming req see
system.mem_ctrls0.rdQLenPdf::4                      0                       # What read queue length does an incoming req see
system.mem_ctrls0.rdQLenPdf::5                      0                       # What read queue length does an incoming req see
system.mem_ctrls0.rdQLenPdf::6                      0                       # What read queue length does an incoming req see
system.mem_ctrls0.rdQLenPdf::7                      0                       # What read queue length does an incoming req see
system.mem_ctrls0.rdQLenPdf::8                      0                       # What read queue length does an incoming req see
system.mem_ctrls0.rdQLenPdf::9                      0                       # What read queue length does an incoming req see
system.mem_ctrls0.rdQLenPdf::10                     0                       # What read queue length does an incoming req see
system.mem_ctrls0.rdQLenPdf::11                     0                       # What read queue length does an incoming req see
system.mem_ctrls0.rdQLenPdf::12                     0                       # What read queue length does an incoming req see
system.mem_ctrls0.rdQLenPdf::13                     0                       # What read queue length does an incoming req see
system.mem_ctrls0.rdQLenPdf::14                     0                       # What read queue length does an incoming req see
system.mem_ctrls0.rdQLenPdf::15                     0                       # What read queue length does an incoming req see
system.mem_ctrls0.rdQLenPdf::16                     0                       # What read queue length does an incoming req see
system.mem_ctrls0.rdQLenPdf::17                     0                       # What read queue length does an incoming req see
system.mem_ctrls0.rdQLenPdf::18                     0                       # What read queue length does an incoming req see
system.mem_ctrls0.rdQLenPdf::19                     0                       # What read queue length does an incoming req see
system.mem_ctrls0.rdQLenPdf::20                     0                       # What read queue length does an incoming req see
system.mem_ctrls0.rdQLenPdf::21                     0                       # What read queue length does an incoming req see
system.mem_ctrls0.rdQLenPdf::22                     0                       # What read queue length does an incoming req see
system.mem_ctrls0.rdQLenPdf::23                     0                       # What read queue length does an incoming req see
system.mem_ctrls0.rdQLenPdf::24                     0                       # What read queue length does an incoming req see
system.mem_ctrls0.rdQLenPdf::25                     0                       # What read queue length does an incoming req see
system.mem_ctrls0.rdQLenPdf::26                     0                       # What read queue length does an incoming req see
system.mem_ctrls0.rdQLenPdf::27                     0                       # What read queue length does an incoming req see
system.mem_ctrls0.rdQLenPdf::28                     0                       # What read queue length does an incoming req see
system.mem_ctrls0.rdQLenPdf::29                     0                       # What read queue length does an incoming req see
system.mem_ctrls0.rdQLenPdf::30                     0                       # What read queue length does an incoming req see
system.mem_ctrls0.rdQLenPdf::31                     0                       # What read queue length does an incoming req see
system.mem_ctrls0.wrQLenPdf::0                      2                       # What write queue length does an incoming req see
system.mem_ctrls0.wrQLenPdf::1                      2                       # What write queue length does an incoming req see
system.mem_ctrls0.wrQLenPdf::2                      2                       # What write queue length does an incoming req see
system.mem_ctrls0.wrQLenPdf::3                      2                       # What write queue length does an incoming req see
system.mem_ctrls0.wrQLenPdf::4                      2                       # What write queue length does an incoming req see
system.mem_ctrls0.wrQLenPdf::5                      2                       # What write queue length does an incoming req see
system.mem_ctrls0.wrQLenPdf::6                      2                       # What write queue length does an incoming req see
system.mem_ctrls0.wrQLenPdf::7                      2                       # What write queue length does an incoming req see
system.mem_ctrls0.wrQLenPdf::8                      2                       # What write queue length does an incoming req see
system.mem_ctrls0.wrQLenPdf::9                      2                       # What write queue length does an incoming req see
system.mem_ctrls0.wrQLenPdf::10                     2                       # What write queue length does an incoming req see
system.mem_ctrls0.wrQLenPdf::11                     2                       # What write queue length does an incoming req see
system.mem_ctrls0.wrQLenPdf::12                     2                       # What write queue length does an incoming req see
system.mem_ctrls0.wrQLenPdf::13                     2                       # What write queue length does an incoming req see
system.mem_ctrls0.wrQLenPdf::14                     2                       # What write queue length does an incoming req see
system.mem_ctrls0.wrQLenPdf::15                 19844                       # What write queue length does an incoming req see
system.mem_ctrls0.wrQLenPdf::16                 20729                       # What write queue length does an incoming req see
system.mem_ctrls0.wrQLenPdf::17                 30604                       # What write queue length does an incoming req see
system.mem_ctrls0.wrQLenPdf::18                 31565                       # What write queue length does an incoming req see
system.mem_ctrls0.wrQLenPdf::19                 31642                       # What write queue length does an incoming req see
system.mem_ctrls0.wrQLenPdf::20                 31649                       # What write queue length does an incoming req see
system.mem_ctrls0.wrQLenPdf::21                 31664                       # What write queue length does an incoming req see
system.mem_ctrls0.wrQLenPdf::22                 31939                       # What write queue length does an incoming req see
system.mem_ctrls0.wrQLenPdf::23                 31876                       # What write queue length does an incoming req see
system.mem_ctrls0.wrQLenPdf::24                 31795                       # What write queue length does an incoming req see
system.mem_ctrls0.wrQLenPdf::25                 31744                       # What write queue length does an incoming req see
system.mem_ctrls0.wrQLenPdf::26                 31717                       # What write queue length does an incoming req see
system.mem_ctrls0.wrQLenPdf::27                 31700                       # What write queue length does an incoming req see
system.mem_ctrls0.wrQLenPdf::28                 31728                       # What write queue length does an incoming req see
system.mem_ctrls0.wrQLenPdf::29                 31678                       # What write queue length does an incoming req see
system.mem_ctrls0.wrQLenPdf::30                 31664                       # What write queue length does an incoming req see
system.mem_ctrls0.wrQLenPdf::31                 31566                       # What write queue length does an incoming req see
system.mem_ctrls0.wrQLenPdf::32                 31554                       # What write queue length does an incoming req see
system.mem_ctrls0.wrQLenPdf::33                    67                       # What write queue length does an incoming req see
system.mem_ctrls0.wrQLenPdf::34                     6                       # What write queue length does an incoming req see
system.mem_ctrls0.wrQLenPdf::35                     0                       # What write queue length does an incoming req see
system.mem_ctrls0.wrQLenPdf::36                     0                       # What write queue length does an incoming req see
system.mem_ctrls0.wrQLenPdf::37                     0                       # What write queue length does an incoming req see
system.mem_ctrls0.wrQLenPdf::38                     0                       # What write queue length does an incoming req see
system.mem_ctrls0.wrQLenPdf::39                     0                       # What write queue length does an incoming req see
system.mem_ctrls0.wrQLenPdf::40                     0                       # What write queue length does an incoming req see
system.mem_ctrls0.wrQLenPdf::41                     0                       # What write queue length does an incoming req see
system.mem_ctrls0.wrQLenPdf::42                     0                       # What write queue length does an incoming req see
system.mem_ctrls0.wrQLenPdf::43                     0                       # What write queue length does an incoming req see
system.mem_ctrls0.wrQLenPdf::44                     0                       # What write queue length does an incoming req see
system.mem_ctrls0.wrQLenPdf::45                     0                       # What write queue length does an incoming req see
system.mem_ctrls0.wrQLenPdf::46                     0                       # What write queue length does an incoming req see
system.mem_ctrls0.wrQLenPdf::47                     0                       # What write queue length does an incoming req see
system.mem_ctrls0.wrQLenPdf::48                     0                       # What write queue length does an incoming req see
system.mem_ctrls0.wrQLenPdf::49                     0                       # What write queue length does an incoming req see
system.mem_ctrls0.wrQLenPdf::50                     0                       # What write queue length does an incoming req see
system.mem_ctrls0.wrQLenPdf::51                     0                       # What write queue length does an incoming req see
system.mem_ctrls0.wrQLenPdf::52                     0                       # What write queue length does an incoming req see
system.mem_ctrls0.wrQLenPdf::53                     0                       # What write queue length does an incoming req see
system.mem_ctrls0.wrQLenPdf::54                     0                       # What write queue length does an incoming req see
system.mem_ctrls0.wrQLenPdf::55                     0                       # What write queue length does an incoming req see
system.mem_ctrls0.wrQLenPdf::56                     0                       # What write queue length does an incoming req see
system.mem_ctrls0.wrQLenPdf::57                     0                       # What write queue length does an incoming req see
system.mem_ctrls0.wrQLenPdf::58                     0                       # What write queue length does an incoming req see
system.mem_ctrls0.wrQLenPdf::59                     0                       # What write queue length does an incoming req see
system.mem_ctrls0.wrQLenPdf::60                     0                       # What write queue length does an incoming req see
system.mem_ctrls0.wrQLenPdf::61                     0                       # What write queue length does an incoming req see
system.mem_ctrls0.wrQLenPdf::62                     0                       # What write queue length does an incoming req see
system.mem_ctrls0.wrQLenPdf::63                     0                       # What write queue length does an incoming req see
system.mem_ctrls0.bytesPerActivate::samples      1970749                       # Bytes accessed per row activation
system.mem_ctrls0.bytesPerActivate::mean    70.416760                       # Bytes accessed per row activation
system.mem_ctrls0.bytesPerActivate::gmean    67.623404                       # Bytes accessed per row activation
system.mem_ctrls0.bytesPerActivate::stdev    30.975014                       # Bytes accessed per row activation
system.mem_ctrls0.bytesPerActivate::0-127      1852421     94.00%     94.00% # Bytes accessed per row activation
system.mem_ctrls0.bytesPerActivate::128-255        97989      4.97%     98.97% # Bytes accessed per row activation
system.mem_ctrls0.bytesPerActivate::256-383        16478      0.84%     99.80% # Bytes accessed per row activation
system.mem_ctrls0.bytesPerActivate::384-511         3239      0.16%     99.97% # Bytes accessed per row activation
system.mem_ctrls0.bytesPerActivate::512-639          514      0.03%     99.99% # Bytes accessed per row activation
system.mem_ctrls0.bytesPerActivate::640-767           87      0.00%    100.00% # Bytes accessed per row activation
system.mem_ctrls0.bytesPerActivate::768-895           17      0.00%    100.00% # Bytes accessed per row activation
system.mem_ctrls0.bytesPerActivate::896-1023            1      0.00%    100.00% # Bytes accessed per row activation
system.mem_ctrls0.bytesPerActivate::1024-1151            3      0.00%    100.00% # Bytes accessed per row activation
system.mem_ctrls0.bytesPerActivate::total      1970749                       # Bytes accessed per row activation
system.mem_ctrls0.rdPerTurnAround::samples        31542                       # Reads before turning the bus around for writes
system.mem_ctrls0.rdPerTurnAround::mean     51.410310                       # Reads before turning the bus around for writes
system.mem_ctrls0.rdPerTurnAround::gmean    48.583079                       # Reads before turning the bus around for writes
system.mem_ctrls0.rdPerTurnAround::stdev   115.759308                       # Reads before turning the bus around for writes
system.mem_ctrls0.rdPerTurnAround::0-1023        31539     99.99%     99.99% # Reads before turning the bus around for writes
system.mem_ctrls0.rdPerTurnAround::1024-2047            1      0.00%     99.99% # Reads before turning the bus around for writes
system.mem_ctrls0.rdPerTurnAround::2048-3071            1      0.00%    100.00% # Reads before turning the bus around for writes
system.mem_ctrls0.rdPerTurnAround::19456-20479            1      0.00%    100.00% # Reads before turning the bus around for writes
system.mem_ctrls0.rdPerTurnAround::total        31542                       # Reads before turning the bus around for writes
system.mem_ctrls0.wrPerTurnAround::samples        31542                       # Writes before turning the bus around for reads
system.mem_ctrls0.wrPerTurnAround::mean     17.333365                       # Writes before turning the bus around for reads
system.mem_ctrls0.wrPerTurnAround::gmean    17.303986                       # Writes before turning the bus around for reads
system.mem_ctrls0.wrPerTurnAround::stdev     1.000486                       # Writes before turning the bus around for reads
system.mem_ctrls0.wrPerTurnAround::16           10804     34.25%     34.25% # Writes before turning the bus around for reads
system.mem_ctrls0.wrPerTurnAround::17             806      2.56%     36.81% # Writes before turning the bus around for reads
system.mem_ctrls0.wrPerTurnAround::18           18631     59.07%     95.88% # Writes before turning the bus around for reads
system.mem_ctrls0.wrPerTurnAround::19            1219      3.86%     99.74% # Writes before turning the bus around for reads
system.mem_ctrls0.wrPerTurnAround::20              78      0.25%     99.99% # Writes before turning the bus around for reads
system.mem_ctrls0.wrPerTurnAround::21               4      0.01%    100.00% # Writes before turning the bus around for reads
system.mem_ctrls0.wrPerTurnAround::total        31542                       # Writes before turning the bus around for reads
system.mem_ctrls0.totQLat                 88715932081                       # Total ticks spent queuing
system.mem_ctrls0.totMemAccLat           119121213331                       # Total ticks spent from burst creation until serviced by the DRAM
system.mem_ctrls0.totBusLat                8108075000                       # Total ticks spent in databus transfers
system.mem_ctrls0.avgQLat                    54708.38                       # Average queueing delay per DRAM burst
system.mem_ctrls0.avgBusLat                   5000.00                       # Average bus latency per DRAM burst
system.mem_ctrls0.avgMemAccLat               73458.38                       # Average memory access latency per DRAM burst
system.mem_ctrls0.avgRdBW                       60.40                       # Average DRAM read bandwidth in MiByte/s
system.mem_ctrls0.avgWrBW                       20.37                       # Average achieved write bandwidth in MiByte/s
system.mem_ctrls0.avgRdBWSys                    60.42                       # Average system read bandwidth in MiByte/s
system.mem_ctrls0.avgWrBWSys                    20.37                       # Average system write bandwidth in MiByte/s
system.mem_ctrls0.peakBW                     12800.00                       # Theoretical peak bandwidth in MiByte/s
system.mem_ctrls0.busUtil                        0.63                       # Data bus utilization in percentage
system.mem_ctrls0.busUtilRead                    0.47                       # Data bus utilization in percentage for reads
system.mem_ctrls0.busUtilWrite                   0.16                       # Data bus utilization in percentage for writes
system.mem_ctrls0.avgRdQLen                      1.01                       # Average read queue length when enqueuing
system.mem_ctrls0.avgWrQLen                     24.33                       # Average write queue length when enqueuing
system.mem_ctrls0.readRowHits                   24212                       # Number of row buffer hits during reads
system.mem_ctrls0.writeRowHits                 173379                       # Number of row buffer hits during writes
system.mem_ctrls0.readRowHitRate                 1.49                       # Row buffer hit rate for reads
system.mem_ctrls0.writeRowHitRate               31.71                       # Row buffer hit rate for writes
system.mem_ctrls0.avgGap                    792247.83                       # Average gap between requests
system.mem_ctrls0.pageHitRate                    9.11                       # Row buffer hit rate, read and write combined
system.mem_ctrls0_0.actEnergy              7104364260                       # Energy for activate commands per rank (pJ)
system.mem_ctrls0_0.preEnergy              3776047770                       # Energy for precharge commands per rank (pJ)
system.mem_ctrls0_0.readEnergy             5855899560                       # Energy for read commands per rank (pJ)
system.mem_ctrls0_0.writeEnergy            1435468680                       # Energy for write commands per rank (pJ)
system.mem_ctrls0_0.refreshEnergy        135259522320.000031                       # Energy for refresh commands per rank (pJ)
system.mem_ctrls0_0.actBackEnergy         68364827580                       # Energy for active background per rank (pJ)
system.mem_ctrls0_0.preBackEnergy          6971633280                       # Energy for precharge background per rank (pJ)
system.mem_ctrls0_0.actPowerDownEnergy   369256941720                       # Energy for active power-down per rank (pJ)
system.mem_ctrls0_0.prePowerDownEnergy   187094545920                       # Energy for precharge power-down per rank (pJ)
system.mem_ctrls0_0.selfRefreshEnergy     79669520295                       # Energy for self refresh per rank (pJ)
system.mem_ctrls0_0.totalEnergy          864854119665                       # Total energy per rank (pJ)
system.mem_ctrls0_0.averagePower           503.369157                       # Core power per rank (mW)
system.mem_ctrls0_0.totalIdleTime        1549906726771                       # Total Idle time Per DRAM Rank
system.mem_ctrls0_0.memoryStateTime::IDLE   9980028763                       # Time in different power states
system.mem_ctrls0_0.memoryStateTime::REF  57428288000                       # Time in different power states
system.mem_ctrls0_0.memoryStateTime::SREF 252907892389                       # Time in different power states
system.mem_ctrls0_0.memoryStateTime::PRE_PDN 487225402927                       # Time in different power states
system.mem_ctrls0_0.memoryStateTime::ACT 100814336109                       # Time in different power states
system.mem_ctrls0_0.memoryStateTime::ACT_PDN 809774942737                       # Time in different power states
system.mem_ctrls0_1.actEnergy              6966812160                       # Energy for activate commands per rank (pJ)
system.mem_ctrls0_1.preEnergy              3702944685                       # Energy for precharge commands per rank (pJ)
system.mem_ctrls0_1.readEnergy             5722431540                       # Energy for read commands per rank (pJ)
system.mem_ctrls0_1.writeEnergy            1418456700                       # Energy for write commands per rank (pJ)
system.mem_ctrls0_1.refreshEnergy        137442723600.000031                       # Energy for refresh commands per rank (pJ)
system.mem_ctrls0_1.actBackEnergy         67800447210                       # Energy for active background per rank (pJ)
system.mem_ctrls0_1.preBackEnergy          6763076160                       # Energy for precharge background per rank (pJ)
system.mem_ctrls0_1.actPowerDownEnergy   381665250630                       # Energy for active power-down per rank (pJ)
system.mem_ctrls0_1.prePowerDownEnergy   191536316640                       # Energy for precharge power-down per rank (pJ)
system.mem_ctrls0_1.selfRefreshEnergy     70080997965                       # Energy for self refresh per rank (pJ)
system.mem_ctrls0_1.totalEnergy          873174513510                       # Total energy per rank (pJ)
system.mem_ctrls0_1.averagePower           508.211862                       # Core power per rank (mW)
system.mem_ctrls0_1.totalIdleTime        1551662018884                       # Total Idle time Per DRAM Rank
system.mem_ctrls0_1.memoryStateTime::IDLE   9675685877                       # Time in different power states
system.mem_ctrls0_1.memoryStateTime::REF  58345292000                       # Time in different power states
system.mem_ctrls0_1.memoryStateTime::SREF 215888739129                       # Time in different power states
system.mem_ctrls0_1.memoryStateTime::PRE_PDN 498791021429                       # Time in different power states
system.mem_ctrls0_1.memoryStateTime::ACT  98447118618                       # Time in different power states
system.mem_ctrls0_1.memoryStateTime::ACT_PDN 836983033872                       # Time in different power states
system.mem_ctrls1.pwrStateResidencyTicks::UNDEFINED 35021508815286                       # Cumulative time (in ticks) in various power states
system.mem_ctrls1.bytes_read::cpu.inst             64                       # Number of bytes read from this memory
system.mem_ctrls1.bytes_read::cpu.data            192                       # Number of bytes read from this memory
system.mem_ctrls1.bytes_read::switch_cpus.inst         8128                       # Number of bytes read from this memory
system.mem_ctrls1.bytes_read::switch_cpus.data     86064512                       # Number of bytes read from this memory
system.mem_ctrls1.bytes_read::switch_cpus_1.data     17653440                       # Number of bytes read from this memory
system.mem_ctrls1.bytes_read::total         103726336                       # Number of bytes read from this memory
system.mem_ctrls1.bytes_inst_read::cpu.inst           64                       # Number of instructions bytes read from this memory
system.mem_ctrls1.bytes_inst_read::switch_cpus.inst         8128                       # Number of instructions bytes read from this memory
system.mem_ctrls1.bytes_inst_read::total         8192                       # Number of instructions bytes read from this memory
system.mem_ctrls1.bytes_written::writebacks     34961984                       # Number of bytes written to this memory
system.mem_ctrls1.bytes_written::total       34961984                       # Number of bytes written to this memory
system.mem_ctrls1.num_reads::cpu.inst               1                       # Number of read requests responded to by this memory
system.mem_ctrls1.num_reads::cpu.data               3                       # Number of read requests responded to by this memory
system.mem_ctrls1.num_reads::switch_cpus.inst          127                       # Number of read requests responded to by this memory
system.mem_ctrls1.num_reads::switch_cpus.data      1344758                       # Number of read requests responded to by this memory
system.mem_ctrls1.num_reads::switch_cpus_1.data       275835                       # Number of read requests responded to by this memory
system.mem_ctrls1.num_reads::total            1620724                       # Number of read requests responded to by this memory
system.mem_ctrls1.num_writes::writebacks       546281                       # Number of write requests responded to by this memory
system.mem_ctrls1.num_writes::total            546281                       # Number of write requests responded to by this memory
system.mem_ctrls1.bw_read::cpu.inst                37                       # Total read bandwidth from this memory (bytes/s)
system.mem_ctrls1.bw_read::cpu.data               112                       # Total read bandwidth from this memory (bytes/s)
system.mem_ctrls1.bw_read::switch_cpus.inst         4731                       # Total read bandwidth from this memory (bytes/s)
system.mem_ctrls1.bw_read::switch_cpus.data     50091941                       # Total read bandwidth from this memory (bytes/s)
system.mem_ctrls1.bw_read::switch_cpus_1.data     10274793                       # Total read bandwidth from this memory (bytes/s)
system.mem_ctrls1.bw_read::total             60371615                       # Total read bandwidth from this memory (bytes/s)
system.mem_ctrls1.bw_inst_read::cpu.inst           37                       # Instruction read bandwidth from this memory (bytes/s)
system.mem_ctrls1.bw_inst_read::switch_cpus.inst         4731                       # Instruction read bandwidth from this memory (bytes/s)
system.mem_ctrls1.bw_inst_read::total            4768                       # Instruction read bandwidth from this memory (bytes/s)
system.mem_ctrls1.bw_write::writebacks       20348848                       # Write bandwidth from this memory (bytes/s)
system.mem_ctrls1.bw_write::total            20348848                       # Write bandwidth from this memory (bytes/s)
system.mem_ctrls1.bw_total::writebacks       20348848                       # Total bandwidth to/from this memory (bytes/s)
system.mem_ctrls1.bw_total::cpu.inst               37                       # Total bandwidth to/from this memory (bytes/s)
system.mem_ctrls1.bw_total::cpu.data              112                       # Total bandwidth to/from this memory (bytes/s)
system.mem_ctrls1.bw_total::switch_cpus.inst         4731                       # Total bandwidth to/from this memory (bytes/s)
system.mem_ctrls1.bw_total::switch_cpus.data     50091941                       # Total bandwidth to/from this memory (bytes/s)
system.mem_ctrls1.bw_total::switch_cpus_1.data     10274793                       # Total bandwidth to/from this memory (bytes/s)
system.mem_ctrls1.bw_total::total            80720462                       # Total bandwidth to/from this memory (bytes/s)
system.mem_ctrls1.readReqs                    1620724                       # Number of read requests accepted
system.mem_ctrls1.writeReqs                    546281                       # Number of write requests accepted
system.mem_ctrls1.readBursts                  1620724                       # Number of DRAM read bursts, including those serviced by the write queue
system.mem_ctrls1.writeBursts                  546281                       # Number of DRAM write bursts, including those merged in the write queue
system.mem_ctrls1.bytesReadDRAM             103706816                       # Total number of bytes read from DRAM
system.mem_ctrls1.bytesReadWrQ                  19520                       # Total number of bytes read from write queue
system.mem_ctrls1.bytesWritten               34960640                       # Total number of bytes written to DRAM
system.mem_ctrls1.bytesReadSys              103726336                       # Total read bytes from the system interface side
system.mem_ctrls1.bytesWrittenSys            34961984                       # Total written bytes from the system interface side
system.mem_ctrls1.servicedByWrQ                   305                       # Number of DRAM read bursts serviced by the write queue
system.mem_ctrls1.mergedWrBursts                    0                       # Number of DRAM write bursts merged with an existing one
system.mem_ctrls1.neitherReadNorWriteReqs            0                       # Number of requests that are neither read nor write
system.mem_ctrls1.perBankRdBursts::0           105761                       # Per bank write bursts
system.mem_ctrls1.perBankRdBursts::1           103628                       # Per bank write bursts
system.mem_ctrls1.perBankRdBursts::2           103758                       # Per bank write bursts
system.mem_ctrls1.perBankRdBursts::3           100931                       # Per bank write bursts
system.mem_ctrls1.perBankRdBursts::4           101561                       # Per bank write bursts
system.mem_ctrls1.perBankRdBursts::5           101490                       # Per bank write bursts
system.mem_ctrls1.perBankRdBursts::6           100926                       # Per bank write bursts
system.mem_ctrls1.perBankRdBursts::7           101763                       # Per bank write bursts
system.mem_ctrls1.perBankRdBursts::8           100754                       # Per bank write bursts
system.mem_ctrls1.perBankRdBursts::9            99664                       # Per bank write bursts
system.mem_ctrls1.perBankRdBursts::10           99636                       # Per bank write bursts
system.mem_ctrls1.perBankRdBursts::11           99668                       # Per bank write bursts
system.mem_ctrls1.perBankRdBursts::12           98438                       # Per bank write bursts
system.mem_ctrls1.perBankRdBursts::13           98400                       # Per bank write bursts
system.mem_ctrls1.perBankRdBursts::14          100470                       # Per bank write bursts
system.mem_ctrls1.perBankRdBursts::15          103571                       # Per bank write bursts
system.mem_ctrls1.perBankWrBursts::0            36404                       # Per bank write bursts
system.mem_ctrls1.perBankWrBursts::1            35344                       # Per bank write bursts
system.mem_ctrls1.perBankWrBursts::2            34790                       # Per bank write bursts
system.mem_ctrls1.perBankWrBursts::3            33659                       # Per bank write bursts
system.mem_ctrls1.perBankWrBursts::4            33596                       # Per bank write bursts
system.mem_ctrls1.perBankWrBursts::5            33539                       # Per bank write bursts
system.mem_ctrls1.perBankWrBursts::6            33580                       # Per bank write bursts
system.mem_ctrls1.perBankWrBursts::7            33903                       # Per bank write bursts
system.mem_ctrls1.perBankWrBursts::8            33592                       # Per bank write bursts
system.mem_ctrls1.perBankWrBursts::9            33307                       # Per bank write bursts
system.mem_ctrls1.perBankWrBursts::10           33814                       # Per bank write bursts
system.mem_ctrls1.perBankWrBursts::11           33725                       # Per bank write bursts
system.mem_ctrls1.perBankWrBursts::12           33536                       # Per bank write bursts
system.mem_ctrls1.perBankWrBursts::13           33539                       # Per bank write bursts
system.mem_ctrls1.perBankWrBursts::14           34385                       # Per bank write bursts
system.mem_ctrls1.perBankWrBursts::15           35547                       # Per bank write bursts
system.mem_ctrls1.numRdRetry                        0                       # Number of times read queue was full causing retry
system.mem_ctrls1.numWrRetry                        0                       # Number of times write queue was full causing retry
system.mem_ctrls1.totGap                 1718129989494                       # Total gap between requests
system.mem_ctrls1.readPktSize::0                    0                       # Read request sizes (log2)
system.mem_ctrls1.readPktSize::1                    0                       # Read request sizes (log2)
system.mem_ctrls1.readPktSize::2                    0                       # Read request sizes (log2)
system.mem_ctrls1.readPktSize::3                    0                       # Read request sizes (log2)
system.mem_ctrls1.readPktSize::4                    0                       # Read request sizes (log2)
system.mem_ctrls1.readPktSize::5                    0                       # Read request sizes (log2)
system.mem_ctrls1.readPktSize::6              1620724                       # Read request sizes (log2)
system.mem_ctrls1.writePktSize::0                   0                       # Write request sizes (log2)
system.mem_ctrls1.writePktSize::1                   0                       # Write request sizes (log2)
system.mem_ctrls1.writePktSize::2                   0                       # Write request sizes (log2)
system.mem_ctrls1.writePktSize::3                   0                       # Write request sizes (log2)
system.mem_ctrls1.writePktSize::4                   0                       # Write request sizes (log2)
system.mem_ctrls1.writePktSize::5                   0                       # Write request sizes (log2)
system.mem_ctrls1.writePktSize::6              546281                       # Write request sizes (log2)
system.mem_ctrls1.rdQLenPdf::0                1535417                       # What read queue length does an incoming req see
system.mem_ctrls1.rdQLenPdf::1                  76306                       # What read queue length does an incoming req see
system.mem_ctrls1.rdQLenPdf::2                   8348                       # What read queue length does an incoming req see
system.mem_ctrls1.rdQLenPdf::3                    348                       # What read queue length does an incoming req see
system.mem_ctrls1.rdQLenPdf::4                      0                       # What read queue length does an incoming req see
system.mem_ctrls1.rdQLenPdf::5                      0                       # What read queue length does an incoming req see
system.mem_ctrls1.rdQLenPdf::6                      0                       # What read queue length does an incoming req see
system.mem_ctrls1.rdQLenPdf::7                      0                       # What read queue length does an incoming req see
system.mem_ctrls1.rdQLenPdf::8                      0                       # What read queue length does an incoming req see
system.mem_ctrls1.rdQLenPdf::9                      0                       # What read queue length does an incoming req see
system.mem_ctrls1.rdQLenPdf::10                     0                       # What read queue length does an incoming req see
system.mem_ctrls1.rdQLenPdf::11                     0                       # What read queue length does an incoming req see
system.mem_ctrls1.rdQLenPdf::12                     0                       # What read queue length does an incoming req see
system.mem_ctrls1.rdQLenPdf::13                     0                       # What read queue length does an incoming req see
system.mem_ctrls1.rdQLenPdf::14                     0                       # What read queue length does an incoming req see
system.mem_ctrls1.rdQLenPdf::15                     0                       # What read queue length does an incoming req see
system.mem_ctrls1.rdQLenPdf::16                     0                       # What read queue length does an incoming req see
system.mem_ctrls1.rdQLenPdf::17                     0                       # What read queue length does an incoming req see
system.mem_ctrls1.rdQLenPdf::18                     0                       # What read queue length does an incoming req see
system.mem_ctrls1.rdQLenPdf::19                     0                       # What read queue length does an incoming req see
system.mem_ctrls1.rdQLenPdf::20                     0                       # What read queue length does an incoming req see
system.mem_ctrls1.rdQLenPdf::21                     0                       # What read queue length does an incoming req see
system.mem_ctrls1.rdQLenPdf::22                     0                       # What read queue length does an incoming req see
system.mem_ctrls1.rdQLenPdf::23                     0                       # What read queue length does an incoming req see
system.mem_ctrls1.rdQLenPdf::24                     0                       # What read queue length does an incoming req see
system.mem_ctrls1.rdQLenPdf::25                     0                       # What read queue length does an incoming req see
system.mem_ctrls1.rdQLenPdf::26                     0                       # What read queue length does an incoming req see
system.mem_ctrls1.rdQLenPdf::27                     0                       # What read queue length does an incoming req see
system.mem_ctrls1.rdQLenPdf::28                     0                       # What read queue length does an incoming req see
system.mem_ctrls1.rdQLenPdf::29                     0                       # What read queue length does an incoming req see
system.mem_ctrls1.rdQLenPdf::30                     0                       # What read queue length does an incoming req see
system.mem_ctrls1.rdQLenPdf::31                     0                       # What read queue length does an incoming req see
system.mem_ctrls1.wrQLenPdf::0                      2                       # What write queue length does an incoming req see
system.mem_ctrls1.wrQLenPdf::1                      2                       # What write queue length does an incoming req see
system.mem_ctrls1.wrQLenPdf::2                      2                       # What write queue length does an incoming req see
system.mem_ctrls1.wrQLenPdf::3                      2                       # What write queue length does an incoming req see
system.mem_ctrls1.wrQLenPdf::4                      2                       # What write queue length does an incoming req see
system.mem_ctrls1.wrQLenPdf::5                      2                       # What write queue length does an incoming req see
system.mem_ctrls1.wrQLenPdf::6                      2                       # What write queue length does an incoming req see
system.mem_ctrls1.wrQLenPdf::7                      2                       # What write queue length does an incoming req see
system.mem_ctrls1.wrQLenPdf::8                      2                       # What write queue length does an incoming req see
system.mem_ctrls1.wrQLenPdf::9                      2                       # What write queue length does an incoming req see
system.mem_ctrls1.wrQLenPdf::10                     2                       # What write queue length does an incoming req see
system.mem_ctrls1.wrQLenPdf::11                     2                       # What write queue length does an incoming req see
system.mem_ctrls1.wrQLenPdf::12                     2                       # What write queue length does an incoming req see
system.mem_ctrls1.wrQLenPdf::13                     2                       # What write queue length does an incoming req see
system.mem_ctrls1.wrQLenPdf::14                     2                       # What write queue length does an incoming req see
system.mem_ctrls1.wrQLenPdf::15                 19797                       # What write queue length does an incoming req see
system.mem_ctrls1.wrQLenPdf::16                 20701                       # What write queue length does an incoming req see
system.mem_ctrls1.wrQLenPdf::17                 30601                       # What write queue length does an incoming req see
system.mem_ctrls1.wrQLenPdf::18                 31537                       # What write queue length does an incoming req see
system.mem_ctrls1.wrQLenPdf::19                 31641                       # What write queue length does an incoming req see
system.mem_ctrls1.wrQLenPdf::20                 31636                       # What write queue length does an incoming req see
system.mem_ctrls1.wrQLenPdf::21                 31697                       # What write queue length does an incoming req see
system.mem_ctrls1.wrQLenPdf::22                 31907                       # What write queue length does an incoming req see
system.mem_ctrls1.wrQLenPdf::23                 31822                       # What write queue length does an incoming req see
system.mem_ctrls1.wrQLenPdf::24                 31724                       # What write queue length does an incoming req see
system.mem_ctrls1.wrQLenPdf::25                 31743                       # What write queue length does an incoming req see
system.mem_ctrls1.wrQLenPdf::26                 31695                       # What write queue length does an incoming req see
system.mem_ctrls1.wrQLenPdf::27                 31683                       # What write queue length does an incoming req see
system.mem_ctrls1.wrQLenPdf::28                 31685                       # What write queue length does an incoming req see
system.mem_ctrls1.wrQLenPdf::29                 31632                       # What write queue length does an incoming req see
system.mem_ctrls1.wrQLenPdf::30                 31641                       # What write queue length does an incoming req see
system.mem_ctrls1.wrQLenPdf::31                 31537                       # What write queue length does an incoming req see
system.mem_ctrls1.wrQLenPdf::32                 31518                       # What write queue length does an incoming req see
system.mem_ctrls1.wrQLenPdf::33                    52                       # What write queue length does an incoming req see
system.mem_ctrls1.wrQLenPdf::34                     2                       # What write queue length does an incoming req see
system.mem_ctrls1.wrQLenPdf::35                     0                       # What write queue length does an incoming req see
system.mem_ctrls1.wrQLenPdf::36                     0                       # What write queue length does an incoming req see
system.mem_ctrls1.wrQLenPdf::37                     0                       # What write queue length does an incoming req see
system.mem_ctrls1.wrQLenPdf::38                     0                       # What write queue length does an incoming req see
system.mem_ctrls1.wrQLenPdf::39                     0                       # What write queue length does an incoming req see
system.mem_ctrls1.wrQLenPdf::40                     0                       # What write queue length does an incoming req see
system.mem_ctrls1.wrQLenPdf::41                     0                       # What write queue length does an incoming req see
system.mem_ctrls1.wrQLenPdf::42                     0                       # What write queue length does an incoming req see
system.mem_ctrls1.wrQLenPdf::43                     0                       # What write queue length does an incoming req see
system.mem_ctrls1.wrQLenPdf::44                     0                       # What write queue length does an incoming req see
system.mem_ctrls1.wrQLenPdf::45                     0                       # What write queue length does an incoming req see
system.mem_ctrls1.wrQLenPdf::46                     0                       # What write queue length does an incoming req see
system.mem_ctrls1.wrQLenPdf::47                     0                       # What write queue length does an incoming req see
system.mem_ctrls1.wrQLenPdf::48                     0                       # What write queue length does an incoming req see
system.mem_ctrls1.wrQLenPdf::49                     0                       # What write queue length does an incoming req see
system.mem_ctrls1.wrQLenPdf::50                     0                       # What write queue length does an incoming req see
system.mem_ctrls1.wrQLenPdf::51                     0                       # What write queue length does an incoming req see
system.mem_ctrls1.wrQLenPdf::52                     0                       # What write queue length does an incoming req see
system.mem_ctrls1.wrQLenPdf::53                     0                       # What write queue length does an incoming req see
system.mem_ctrls1.wrQLenPdf::54                     0                       # What write queue length does an incoming req see
system.mem_ctrls1.wrQLenPdf::55                     0                       # What write queue length does an incoming req see
system.mem_ctrls1.wrQLenPdf::56                     0                       # What write queue length does an incoming req see
system.mem_ctrls1.wrQLenPdf::57                     0                       # What write queue length does an incoming req see
system.mem_ctrls1.wrQLenPdf::58                     0                       # What write queue length does an incoming req see
system.mem_ctrls1.wrQLenPdf::59                     0                       # What write queue length does an incoming req see
system.mem_ctrls1.wrQLenPdf::60                     0                       # What write queue length does an incoming req see
system.mem_ctrls1.wrQLenPdf::61                     0                       # What write queue length does an incoming req see
system.mem_ctrls1.wrQLenPdf::62                     0                       # What write queue length does an incoming req see
system.mem_ctrls1.wrQLenPdf::63                     0                       # What write queue length does an incoming req see
system.mem_ctrls1.bytesPerActivate::samples      1968961                       # Bytes accessed per row activation
system.mem_ctrls1.bytesPerActivate::mean    70.426325                       # Bytes accessed per row activation
system.mem_ctrls1.bytesPerActivate::gmean    67.623147                       # Bytes accessed per row activation
system.mem_ctrls1.bytesPerActivate::stdev    31.069992                       # Bytes accessed per row activation
system.mem_ctrls1.bytesPerActivate::0-127      1851004     94.01%     94.01% # Bytes accessed per row activation
system.mem_ctrls1.bytesPerActivate::128-255        97480      4.95%     98.96% # Bytes accessed per row activation
system.mem_ctrls1.bytesPerActivate::256-383        16532      0.84%     99.80% # Bytes accessed per row activation
system.mem_ctrls1.bytesPerActivate::384-511         3312      0.17%     99.97% # Bytes accessed per row activation
system.mem_ctrls1.bytesPerActivate::512-639          520      0.03%     99.99% # Bytes accessed per row activation
system.mem_ctrls1.bytesPerActivate::640-767           90      0.00%    100.00% # Bytes accessed per row activation
system.mem_ctrls1.bytesPerActivate::768-895           18      0.00%    100.00% # Bytes accessed per row activation
system.mem_ctrls1.bytesPerActivate::896-1023            3      0.00%    100.00% # Bytes accessed per row activation
system.mem_ctrls1.bytesPerActivate::1024-1151            2      0.00%    100.00% # Bytes accessed per row activation
system.mem_ctrls1.bytesPerActivate::total      1968961                       # Bytes accessed per row activation
system.mem_ctrls1.rdPerTurnAround::samples        31514                       # Reads before turning the bus around for writes
system.mem_ctrls1.rdPerTurnAround::mean     51.418639                       # Reads before turning the bus around for writes
system.mem_ctrls1.rdPerTurnAround::gmean    48.593302                       # Reads before turning the bus around for writes
system.mem_ctrls1.rdPerTurnAround::stdev   115.677115                       # Reads before turning the bus around for writes
system.mem_ctrls1.rdPerTurnAround::0-1023        31511     99.99%     99.99% # Reads before turning the bus around for writes
system.mem_ctrls1.rdPerTurnAround::1024-2047            1      0.00%     99.99% # Reads before turning the bus around for writes
system.mem_ctrls1.rdPerTurnAround::2048-3071            1      0.00%    100.00% # Reads before turning the bus around for writes
system.mem_ctrls1.rdPerTurnAround::19456-20479            1      0.00%    100.00% # Reads before turning the bus around for writes
system.mem_ctrls1.rdPerTurnAround::total        31514                       # Reads before turning the bus around for writes
system.mem_ctrls1.wrPerTurnAround::samples        31514                       # Writes before turning the bus around for reads
system.mem_ctrls1.wrPerTurnAround::mean     17.333883                       # Writes before turning the bus around for reads
system.mem_ctrls1.wrPerTurnAround::gmean    17.304303                       # Writes before turning the bus around for reads
system.mem_ctrls1.wrPerTurnAround::stdev     1.004462                       # Writes before turning the bus around for reads
system.mem_ctrls1.wrPerTurnAround::16           10815     34.32%     34.32% # Writes before turning the bus around for reads
system.mem_ctrls1.wrPerTurnAround::17             812      2.58%     36.89% # Writes before turning the bus around for reads
system.mem_ctrls1.wrPerTurnAround::18           18531     58.80%     95.70% # Writes before turning the bus around for reads
system.mem_ctrls1.wrPerTurnAround::19            1275      4.05%     99.74% # Writes before turning the bus around for reads
system.mem_ctrls1.wrPerTurnAround::20              74      0.23%     99.98% # Writes before turning the bus around for reads
system.mem_ctrls1.wrPerTurnAround::21               6      0.02%    100.00% # Writes before turning the bus around for reads
system.mem_ctrls1.wrPerTurnAround::27               1      0.00%    100.00% # Writes before turning the bus around for reads
system.mem_ctrls1.wrPerTurnAround::total        31514                       # Writes before turning the bus around for reads
system.mem_ctrls1.totQLat                 88617303204                       # Total ticks spent queuing
system.mem_ctrls1.totMemAccLat           119000159454                       # Total ticks spent from burst creation until serviced by the DRAM
system.mem_ctrls1.totBusLat                8102095000                       # Total ticks spent in databus transfers
system.mem_ctrls1.avgQLat                    54687.89                       # Average queueing delay per DRAM burst
system.mem_ctrls1.avgBusLat                   5000.00                       # Average bus latency per DRAM burst
system.mem_ctrls1.avgMemAccLat               73437.89                       # Average memory access latency per DRAM burst
system.mem_ctrls1.avgRdBW                       60.36                       # Average DRAM read bandwidth in MiByte/s
system.mem_ctrls1.avgWrBW                       20.35                       # Average achieved write bandwidth in MiByte/s
system.mem_ctrls1.avgRdBWSys                    60.37                       # Average system read bandwidth in MiByte/s
system.mem_ctrls1.avgWrBWSys                    20.35                       # Average system write bandwidth in MiByte/s
system.mem_ctrls1.peakBW                     12800.00                       # Theoretical peak bandwidth in MiByte/s
system.mem_ctrls1.busUtil                        0.63                       # Data bus utilization in percentage
system.mem_ctrls1.busUtilRead                    0.47                       # Data bus utilization in percentage for reads
system.mem_ctrls1.busUtilWrite                   0.16                       # Data bus utilization in percentage for writes
system.mem_ctrls1.avgRdQLen                      1.01                       # Average read queue length when enqueuing
system.mem_ctrls1.avgWrQLen                     24.36                       # Average write queue length when enqueuing
system.mem_ctrls1.readRowHits                   23876                       # Number of row buffer hits during reads
system.mem_ctrls1.writeRowHits                 173831                       # Number of row buffer hits during writes
system.mem_ctrls1.readRowHitRate                 1.47                       # Row buffer hit rate for reads
system.mem_ctrls1.writeRowHitRate               31.82                       # Row buffer hit rate for writes
system.mem_ctrls1.avgGap                    792859.26                       # Average gap between requests
system.mem_ctrls1.pageHitRate                    9.12                       # Row buffer hit rate, read and write combined
system.mem_ctrls1_0.actEnergy              7098516600                       # Energy for activate commands per rank (pJ)
system.mem_ctrls1_0.preEnergy              3772932075                       # Energy for precharge commands per rank (pJ)
system.mem_ctrls1_0.readEnergy             5853500520                       # Energy for read commands per rank (pJ)
system.mem_ctrls1_0.writeEnergy            1434534300                       # Energy for write commands per rank (pJ)
system.mem_ctrls1_0.refreshEnergy        135167940960.000031                       # Energy for refresh commands per rank (pJ)
system.mem_ctrls1_0.actBackEnergy         68808920280                       # Energy for active background per rank (pJ)
system.mem_ctrls1_0.preBackEnergy          6942676320                       # Energy for precharge background per rank (pJ)
system.mem_ctrls1_0.actPowerDownEnergy   369148278060                       # Energy for active power-down per rank (pJ)
system.mem_ctrls1_0.prePowerDownEnergy   186770766240                       # Energy for precharge power-down per rank (pJ)
system.mem_ctrls1_0.selfRefreshEnergy     79638620595                       # Energy for self refresh per rank (pJ)
system.mem_ctrls1_0.totalEnergy          864699791580                       # Total energy per rank (pJ)
system.mem_ctrls1_0.averagePower           503.279334                       # Core power per rank (mW)
system.mem_ctrls1_0.totalIdleTime        1549013335765                       # Total Idle time Per DRAM Rank
system.mem_ctrls1_0.memoryStateTime::IDLE   9917278866                       # Time in different power states
system.mem_ctrls1_0.memoryStateTime::REF  57388486000                       # Time in different power states
system.mem_ctrls1_0.memoryStateTime::SREF 253096013605                       # Time in different power states
system.mem_ctrls1_0.memoryStateTime::PRE_PDN 486381539590                       # Time in different power states
system.mem_ctrls1_0.memoryStateTime::ACT 101811267786                       # Time in different power states
system.mem_ctrls1_0.memoryStateTime::ACT_PDN 809536305078                       # Time in different power states
system.mem_ctrls1_1.actEnergy              6959943480                       # Energy for activate commands per rank (pJ)
system.mem_ctrls1_1.preEnergy              3699274920                       # Energy for precharge commands per rank (pJ)
system.mem_ctrls1_1.readEnergy             5716291140                       # Energy for read commands per rank (pJ)
system.mem_ctrls1_1.writeEnergy            1416942900                       # Energy for write commands per rank (pJ)
system.mem_ctrls1_1.refreshEnergy        137389249920.000031                       # Energy for refresh commands per rank (pJ)
system.mem_ctrls1_1.actBackEnergy         67702064070                       # Energy for active background per rank (pJ)
system.mem_ctrls1_1.preBackEnergy          6776321760                       # Energy for precharge background per rank (pJ)
system.mem_ctrls1_1.actPowerDownEnergy   381104257200                       # Energy for active power-down per rank (pJ)
system.mem_ctrls1_1.prePowerDownEnergy   191591724960                       # Energy for precharge power-down per rank (pJ)
system.mem_ctrls1_1.selfRefreshEnergy     70431936360                       # Energy for self refresh per rank (pJ)
system.mem_ctrls1_1.totalEnergy          872866920300                       # Total energy per rank (pJ)
system.mem_ctrls1_1.averagePower           508.032832                       # Core power per rank (mW)
system.mem_ctrls1_1.totalIdleTime        1551833396805                       # Total Idle time Per DRAM Rank
system.mem_ctrls1_1.memoryStateTime::IDLE   9701299422                       # Time in different power states
system.mem_ctrls1_1.memoryStateTime::REF  58322858000                       # Time in different power states
system.mem_ctrls1_1.memoryStateTime::SREF 217147232479                       # Time in different power states
system.mem_ctrls1_1.memoryStateTime::PRE_PDN 498934503089                       # Time in different power states
system.mem_ctrls1_1.memoryStateTime::ACT  98271999145                       # Time in different power states
system.mem_ctrls1_1.memoryStateTime::ACT_PDN 835752998790                       # Time in different power states
system.pwrStateResidencyTicks::UNDEFINED 35021508815286                       # Cumulative time (in ticks) in various power states
system.cpu.branchPred.lookups                       0                       # Number of BP lookups
system.cpu.branchPred.condPredicted                 0                       # Number of conditional branches predicted
system.cpu.branchPred.condIncorrect                 0                       # Number of conditional branches incorrect
system.cpu.branchPred.BTBLookups                    0                       # Number of BTB lookups
system.cpu.branchPred.BTBHits                       0                       # Number of BTB hits
system.cpu.branchPred.BTBCorrect                    0                       # Number of correct BTB predictions (this stat may not work properly.
system.cpu.branchPred.BTBHitPct                   nan                       # BTB Hit Percentage
system.cpu.branchPred.usedRAS                       0                       # Number of times the RAS was used to get a target.
system.cpu.branchPred.RASInCorrect                  0                       # Number of incorrect RAS predictions.
system.cpu.branchPred.indirectLookups               0                       # Number of indirect predictor lookups.
system.cpu.branchPred.indirectHits                  0                       # Number of indirect target hits.
system.cpu.branchPred.indirectMisses                0                       # Number of indirect misses.
system.cpu.branchPredindirectMispredicted            0                       # Number of mispredicted indirect branches.
system.cpu_voltage_domain.voltage                   1                       # Voltage in Volts
system.cpu_clk_domain.clock                       333                       # Clock period in ticks
system.cpu.dtb.fetch_hits                           0                       # ITB hits
system.cpu.dtb.fetch_misses                         0                       # ITB misses
system.cpu.dtb.fetch_acv                            0                       # ITB acv
system.cpu.dtb.fetch_accesses                       0                       # ITB accesses
system.cpu.dtb.read_hits                           16                       # DTB read hits
system.cpu.dtb.read_misses                          0                       # DTB read misses
system.cpu.dtb.read_acv                             0                       # DTB read access violations
system.cpu.dtb.read_accesses                       16                       # DTB read accesses
system.cpu.dtb.write_hits                           1                       # DTB write hits
system.cpu.dtb.write_misses                         0                       # DTB write misses
system.cpu.dtb.write_acv                            0                       # DTB write access violations
system.cpu.dtb.write_accesses                       1                       # DTB write accesses
system.cpu.dtb.data_hits                           17                       # DTB hits
system.cpu.dtb.data_misses                          0                       # DTB misses
system.cpu.dtb.data_acv                             0                       # DTB access violations
system.cpu.dtb.data_accesses                       17                       # DTB accesses
system.cpu.itb.fetch_hits                           4                       # ITB hits
system.cpu.itb.fetch_misses                         0                       # ITB misses
system.cpu.itb.fetch_acv                            0                       # ITB acv
system.cpu.itb.fetch_accesses                       4                       # ITB accesses
system.cpu.itb.read_hits                            0                       # DTB read hits
system.cpu.itb.read_misses                          0                       # DTB read misses
system.cpu.itb.read_acv                             0                       # DTB read access violations
system.cpu.itb.read_accesses                        0                       # DTB read accesses
system.cpu.itb.write_hits                           0                       # DTB write hits
system.cpu.itb.write_misses                         0                       # DTB write misses
system.cpu.itb.write_acv                            0                       # DTB write access violations
system.cpu.itb.write_accesses                       0                       # DTB write accesses
system.cpu.itb.data_hits                            0                       # DTB hits
system.cpu.itb.data_misses                          0                       # DTB misses
system.cpu.itb.data_acv                             0                       # DTB access violations
system.cpu.itb.data_accesses                        0                       # DTB accesses
system.cpu.workload.num_syscalls                    0                       # Number of system calls
system.cpu.pwrStateResidencyTicks::ON    1718130890925                       # Cumulative time (in ticks) in various power states
system.cpu.numCycles                             1404                       # number of cpu cycles simulated
system.cpu.numWorkItemsStarted                      0                       # number of work items this cpu started
system.cpu.numWorkItemsCompleted                    0                       # number of work items this cpu completed
system.cpu.fetch.icacheStallCycles                 65                       # Number of cycles fetch is stalled on an Icache miss
system.cpu.fetch.Insts                             17                       # Number of instructions fetch has processed
system.cpu.fetch.Cycles                             3                       # Number of cycles fetch has run and was not squashing or blocked
system.cpu.fetch.SquashCycles                       3                       # Number of cycles fetch has spent squashing
system.cpu.fetch.PendingDrainCycles                 6                       # Number of cycles fetch has spent waiting on pipes to drain
system.cpu.fetch.CacheLines                         4                       # Number of cache lines fetched
system.cpu.fetch.IcacheSquashes                     2                       # Number of outstanding Icache misses that were squashed
system.cpu.fetch.rateDist::samples                 75                       # Number of instructions fetched each cycle (Total)
system.cpu.fetch.rateDist::mean              0.226667                       # Number of instructions fetched each cycle (Total)
system.cpu.fetch.rateDist::stdev             1.300450                       # Number of instructions fetched each cycle (Total)
system.cpu.fetch.rateDist::underflows               0      0.00%      0.00% # Number of instructions fetched each cycle (Total)
system.cpu.fetch.rateDist::0                       72     96.00%     96.00% # Number of instructions fetched each cycle (Total)
system.cpu.fetch.rateDist::1                        1      1.33%     97.33% # Number of instructions fetched each cycle (Total)
system.cpu.fetch.rateDist::2                        0      0.00%     97.33% # Number of instructions fetched each cycle (Total)
system.cpu.fetch.rateDist::3                        0      0.00%     97.33% # Number of instructions fetched each cycle (Total)
system.cpu.fetch.rateDist::4                        0      0.00%     97.33% # Number of instructions fetched each cycle (Total)
system.cpu.fetch.rateDist::5                        0      0.00%     97.33% # Number of instructions fetched each cycle (Total)
system.cpu.fetch.rateDist::6                        0      0.00%     97.33% # Number of instructions fetched each cycle (Total)
system.cpu.fetch.rateDist::7                        0      0.00%     97.33% # Number of instructions fetched each cycle (Total)
system.cpu.fetch.rateDist::8                        2      2.67%    100.00% # Number of instructions fetched each cycle (Total)
system.cpu.fetch.rateDist::overflows                0      0.00%    100.00% # Number of instructions fetched each cycle (Total)
system.cpu.fetch.rateDist::min_value                0                       # Number of instructions fetched each cycle (Total)
[...]
system.switch_cpus_1.iq.rate                 1.160049                       # Inst issue rate
system.switch_cpus_1.iq.fu_busy_cnt          15060834                       # FU busy when requested
system.switch_cpus_1.iq.fu_busy_rate         0.073184                       # FU busy rate (busy events/executed inst)
system.switch_cpus_1.iq.int_inst_queue_reads    237818302                       # Number of integer instruction queue reads
system.switch_cpus_1.iq.int_inst_queue_writes     28242618                       # Number of integer instruction queue writes
system.switch_cpus_1.iq.int_inst_queue_wakeup_accesses     27843621                       # Number of integer instruction queue wakeup accesses
system.switch_cpus_1.iq.fp_inst_queue_reads    366265335                       # Number of floating instruction queue reads
system.switch_cpus_1.iq.fp_inst_queue_writes    173989216                       # Number of floating instruction queue writes
system.switch_cpus_1.iq.fp_inst_queue_wakeup_accesses    172770235                       # Number of floating instruction queue wakeup accesses
system.switch_cpus_1.iq.int_alu_accesses     31682382                       # Number of integer alu accesses
system.switch_cpus_1.iq.fp_alu_accesses     189172111                       # Number of floating point alu accesses
system.switch_cpus_1.iew.lsq.thread0.forwLoads      9197946                       # Number of loads that had data forwarded from stores
system.switch_cpus_1.iew.lsq.thread0.invAddrLoads            0                       # Number of loads ignored due to an invalid address
system.switch_cpus_1.iew.lsq.thread0.squashedLoads       414832                       # Number of loads squashed
system.switch_cpus_1.iew.lsq.thread0.ignoredResponses          388                       # Number of memory responses ignored because the instruction is squashed
system.switch_cpus_1.iew.lsq.thread0.memOrderViolation        20777                       # Number of memory ordering violations
system.switch_cpus_1.iew.lsq.thread0.squashedStores       221762                       # Number of stores squashed
system.switch_cpus_1.iew.lsq.thread0.invAddrSwpfs            0                       # Number of software prefetches ignored due to an invalid address
system.switch_cpus_1.iew.lsq.thread0.blockedLoads            0                       # Number of blocked loads due to partial load-store forwarding
system.switch_cpus_1.iew.lsq.thread0.rescheduledLoads            0                       # Number of loads that were rescheduled
system.switch_cpus_1.iew.lsq.thread0.cacheBlocked      5270720                       # Number of times an access to memory failed due to the cache being blocked
system.switch_cpus_1.iew.iewIdleCycles              0                       # Number of cycles IEW is idle
system.switch_cpus_1.iew.iewSquashCycles        25092                       # Number of cycles IEW is squashing
system.switch_cpus_1.iew.iewBlockCycles      21872700                       # Number of cycles IEW is blocking
system.switch_cpus_1.iew.iewUnblockCycles     34642379                       # Number of cycles IEW is unblocking
system.switch_cpus_1.iew.iewDispatchedInsts    201105610                       # Number of instructions dispatched to IQ
system.switch_cpus_1.iew.iewDispSquashedInsts         2044                       # Number of squashed instructions skipped by dispatch
system.switch_cpus_1.iew.iewDispLoadInsts     82548751                       # Number of dispatched load instructions
system.switch_cpus_1.iew.iewDispStoreInsts     38176518                       # Number of dispatched store instructions
system.switch_cpus_1.iew.iewDispNonSpecInsts            0                       # Number of dispatched non-speculative instructions
system.switch_cpus_1.iew.iewIQFullEvents        18833                       # Number of times the IQ has become full, causing a stall
system.switch_cpus_1.iew.iewLSQFullEvents     34551189                       # Number of times the LSQ has become full, causing a stall
system.switch_cpus_1.iew.memOrderViolationEvents        20777                       # Number of memory order violations
system.switch_cpus_1.iew.predictedTakenIncorrect         1397                       # Number of branches that were predicted taken incorrectly
system.switch_cpus_1.iew.predictedNotTakenIncorrect           68                       # Number of branches that were predicted not taken incorrectly
system.switch_cpus_1.iew.branchMispredicts         1465                       # Number of branch mispredicts detected at execute
system.switch_cpus_1.iew.iewExecutedInsts    205730069                       # Number of executed instructions
system.switch_cpus_1.iew.iewExecLoadInsts     87460096                       # Number of load instructions executed
system.switch_cpus_1.iew.iewExecSquashedInsts        63581                       # Number of squashed instructions skipped in execute
system.switch_cpus_1.iew.exec_swp                   0                       # number of swp insts executed
system.switch_cpus_1.iew.exec_nop                  27                       # number of nop insts executed
system.switch_cpus_1.iew.exec_refs          125511289                       # number of memory reference insts executed
system.switch_cpus_1.iew.exec_branches         171884                       # Number of branches executed
system.switch_cpus_1.iew.exec_stores         38051193                       # Number of stores executed
system.switch_cpus_1.iew.exec_rate           1.159691                       # Inst execution rate
system.switch_cpus_1.iew.wb_sent            200670598                       # cumulative count of insts sent to commit
system.switch_cpus_1.iew.wb_count           200613856                       # cumulative count of insts written-back
system.switch_cpus_1.iew.wb_producers       131394091                       # num instructions producing a value
system.switch_cpus_1.iew.wb_consumers       136787848                       # num instructions consuming a value
system.switch_cpus_1.iew.wb_rate             1.130851                       # insts written-back per cycle
system.switch_cpus_1.iew.wb_fanout           0.960568                       # average fanout of values written-back
system.switch_cpus_1.commit.commitSquashedInsts      1062720                       # The number of squashed insts skipped by commit
system.switch_cpus_1.commit.branchMispredicts         1459                       # The number of times a branch was mispredicted
system.switch_cpus_1.commit.committed_per_cycle::samples    177252710                       # Number of insts commited each cycle
system.switch_cpus_1.commit.committed_per_cycle::mean     1.128333                       # Number of insts commited each cycle
system.switch_cpus_1.commit.committed_per_cycle::stdev     2.560195                       # Number of insts commited each cycle
system.switch_cpus_1.commit.committed_per_cycle::underflows            0      0.00%      0.00% # Number of insts commited each cycle
system.switch_cpus_1.commit.committed_per_cycle::0    142834339     80.58%     80.58% # Number of insts commited each cycle
system.switch_cpus_1.commit.committed_per_cycle::1      2859927      1.61%     82.20% # Number of insts commited each cycle
system.switch_cpus_1.commit.committed_per_cycle::2      3109870      1.75%     83.95% # Number of insts commited each cycle
system.switch_cpus_1.commit.committed_per_cycle::3      2383806      1.34%     85.30% # Number of insts commited each cycle
system.switch_cpus_1.commit.committed_per_cycle::4      2948975      1.66%     86.96% # Number of insts commited each cycle
system.switch_cpus_1.commit.committed_per_cycle::5      2462596      1.39%     88.35% # Number of insts commited each cycle
system.switch_cpus_1.commit.committed_per_cycle::6      1831267      1.03%     89.38% # Number of insts commited each cycle
system.switch_cpus_1.commit.committed_per_cycle::7      1902983      1.07%     90.45% # Number of insts commited each cycle
system.switch_cpus_1.commit.committed_per_cycle::8     16918947      9.55%    100.00% # Number of insts commited each cycle
system.switch_cpus_1.commit.committed_per_cycle::overflows            0      0.00%    100.00% # Number of insts commited each cycle
system.switch_cpus_1.commit.committed_per_cycle::min_value            0                       # Number of insts commited each cycle
system.switch_cpus_1.commit.committed_per_cycle::max_value            8                       # Number of insts commited each cycle
system.switch_cpus_1.commit.committed_per_cycle::total    177252710                       # Number of insts commited each cycle
system.switch_cpus_1.commit.committedInsts    200000024                       # Number of instructions committed
system.switch_cpus_1.commit.committedOps    200000024                       # Number of ops (including micro ops) committed
system.switch_cpus_1.commit.swp_count               0                       # Number of s/w prefetches committed
system.switch_cpus_1.commit.refs            120088640                       # Number of memory references committed
system.switch_cpus_1.commit.loads            82133897                       # Number of loads committed
system.switch_cpus_1.commit.membars                 0                       # Number of memory barriers committed
system.switch_cpus_1.commit.branches           167612                       # Number of branches committed
system.switch_cpus_1.commit.fp_insts        172405126                       # Number of committed floating point instructions.
system.switch_cpus_1.commit.int_insts       135398704                       # Number of committed integer instructions.
system.switch_cpus_1.commit.function_calls            0                       # Number of function calls committed.
system.switch_cpus_1.commit.op_class_0::No_OpClass           18      0.00%      0.00% # Class of committed instruction
system.switch_cpus_1.commit.op_class_0::IntAlu     15310537      7.66%      7.66% # Class of committed instruction
system.switch_cpus_1.commit.op_class_0::IntMult          186      0.00%      7.66% # Class of committed instruction
system.switch_cpus_1.commit.op_class_0::IntDiv            0      0.00%      7.66% # Class of committed instruction
system.switch_cpus_1.commit.op_class_0::FloatAdd     36073856     18.04%     25.69% # Class of committed instruction
system.switch_cpus_1.commit.op_class_0::FloatCmp            0      0.00%     25.69% # Class of committed instruction
system.switch_cpus_1.commit.op_class_0::FloatCvt            0      0.00%     25.69% # Class of committed instruction
system.switch_cpus_1.commit.op_class_0::FloatMult     28449010     14.22%     39.92% # Class of committed instruction
system.switch_cpus_1.commit.op_class_0::FloatMultAcc            0      0.00%     39.92% # Class of committed instruction
system.switch_cpus_1.commit.op_class_0::FloatDiv        77777      0.04%     39.96% # Class of committed instruction
system.switch_cpus_1.commit.op_class_0::FloatMisc            0      0.00%     39.96% # Class of committed instruction
system.switch_cpus_1.commit.op_class_0::FloatSqrt            0      0.00%     39.96% # Class of committed instruction
system.switch_cpus_1.commit.op_class_0::SimdAdd            0      0.00%     39.96% # Class of committed instruction
system.switch_cpus_1.commit.op_class_0::SimdAddAcc            0      0.00%     39.96% # Class of committed instruction
system.switch_cpus_1.commit.op_class_0::SimdAlu            0      0.00%     39.96% # Class of committed instruction
system.switch_cpus_1.commit.op_class_0::SimdCmp            0      0.00%     39.96% # Class of committed instruction
system.switch_cpus_1.commit.op_class_0::SimdCvt            0      0.00%     39.96% # Class of committed instruction
system.switch_cpus_1.commit.op_class_0::SimdMisc            0      0.00%     39.96% # Class of committed instruction
system.switch_cpus_1.commit.op_class_0::SimdMult            0      0.00%     39.96% # Class of committed instruction
system.switch_cpus_1.commit.op_class_0::SimdMultAcc            0      0.00%     39.96% # Class of committed instruction
system.switch_cpus_1.commit.op_class_0::SimdShift            0      0.00%     39.96% # Class of committed instruction
system.switch_cpus_1.commit.op_class_0::SimdShiftAcc            0      0.00%     39.96% # Class of committed instruction
system.switch_cpus_1.commit.op_class_0::SimdSqrt            0      0.00%     39.96% # Class of committed instruction
system.switch_cpus_1.commit.op_class_0::SimdFloatAdd            0      0.00%     39.96% # Class of committed instruction
system.switch_cpus_1.commit.op_class_0::SimdFloatAlu            0      0.00%     39.96% # Class of committed instruction
system.switch_cpus_1.commit.op_class_0::SimdFloatCmp            0      0.00%     39.96% # Class of committed instruction
system.switch_cpus_1.commit.op_class_0::SimdFloatCvt            0      0.00%     39.96% # Class of committed instruction
system.switch_cpus_1.commit.op_class_0::SimdFloatDiv            0      0.00%     39.96% # Class of committed instruction
system.switch_cpus_1.commit.op_class_0::SimdFloatMisc            0      0.00%     39.96% # Class of committed instruction
system.switch_cpus_1.commit.op_class_0::SimdFloatMult            0      0.00%     39.96% # Class of committed instruction
system.switch_cpus_1.commit.op_class_0::SimdFloatMultAcc            0      0.00%     39.96% # Class of committed instruction
system.switch_cpus_1.commit.op_class_0::SimdFloatSqrt            0      0.00%     39.96% # Class of committed instruction
system.switch_cpus_1.commit.op_class_0::MemRead      8202704      4.10%     44.06% # Class of committed instruction
system.switch_cpus_1.commit.op_class_0::MemWrite      4081453      2.04%     46.10% # Class of committed instruction
system.switch_cpus_1.commit.op_class_0::FloatMemRead     73931193     36.97%     83.06% # Class of committed instruction
system.switch_cpus_1.commit.op_class_0::FloatMemWrite     33873290     16.94%    100.00% # Class of committed instruction
system.switch_cpus_1.commit.op_class_0::IprAccess            0      0.00%    100.00% # Class of committed instruction
system.switch_cpus_1.commit.op_class_0::InstPrefetch            0      0.00%    100.00% # Class of committed instruction
system.switch_cpus_1.commit.op_class_0::total    200000024                       # Class of committed instruction
system.switch_cpus_1.commit.bw_lim_events     16918947                       # number cycles where commit BW limit reached
system.switch_cpus_1.rob.rob_reads          361318507                       # The number of ROB reads
system.switch_cpus_1.rob.rob_writes         402273110                       # The number of ROB writes
system.switch_cpus_1.timesIdled                     5                       # Number of times that the entire CPU went into an idle state and unscheduled itself
system.switch_cpus_1.idleCycles                  1596                       # Total number of cycles that the CPU has spent unscheduled due to idling
system.switch_cpus_1.committedInsts         200000006                       # Number of Instructions Simulated
system.switch_cpus_1.committedOps           200000006                       # Number of Ops (including micro ops) Simulated
system.switch_cpus_1.cpi                     0.887004                       # CPI: Cycles Per Instruction
system.switch_cpus_1.cpi_total               0.887004                       # CPI: Total CPI of All Threads
system.switch_cpus_1.ipc                     1.127391                       # IPC: Instructions Per Cycle
system.switch_cpus_1.ipc_total               1.127391                       # IPC: Total IPC of All Threads
system.switch_cpus_1.int_regfile_reads      145553294                       # number of integer regfile reads
system.switch_cpus_1.int_regfile_writes      23579182                       # number of integer regfile writes
system.switch_cpus_1.fp_regfile_reads       163401904                       # number of floating regfile reads
system.switch_cpus_1.fp_regfile_writes      138857898                       # number of floating regfile writes
system.tol3bus.snoop_filter.tot_requests      7960350                       # Total number of requests made to the snoop filter.
system.tol3bus.snoop_filter.hit_single_requests      3978229                       # Number of requests hitting in the snoop filter with a single holder of the requested data.
system.tol3bus.snoop_filter.hit_multi_requests            0                       # Number of requests hitting in the snoop filter with multiple (>1) holders of the requested data.
system.tol3bus.snoop_filter.tot_snoops         164056                       # Total number of snoops made to the snoop filter.
system.tol3bus.snoop_filter.hit_single_snoops       164056                       # Number of snoops hitting in the snoop filter with a single holder of the requested data.
system.tol3bus.snoop_filter.hit_multi_snoops            0                       # Number of snoops hitting in the snoop filter with multiple (>1) holders of the requested data.
system.tol3bus.pwrStateResidencyTicks::UNDEFINED 35021508815286                       # Cumulative time (in ticks) in various power states
system.tol3bus.trans_dist::ReadResp           2827277                       # Transaction distribution
system.tol3bus.trans_dist::WritebackDirty      2581611                       # Transaction distribution
system.tol3bus.trans_dist::CleanEvict         4572522                       # Transaction distribution
system.tol3bus.trans_dist::ReadExReq          1154844                       # Transaction distribution
system.tol3bus.trans_dist::ReadExResp         1154844                       # Transaction distribution
system.tol3bus.trans_dist::ReadSharedReq      2827277                       # Transaction distribution
system.tol3bus.pkt_count_system.cpu.l2.mem_side::system.l3.cpu_side     11942471                       # Packet count per connected master and slave (bytes)
system.tol3bus.pkt_size_system.cpu.l2.mem_side::system.l3.cpu_side    350124160                       # Cumulative packet size per connected master and slave (bytes)
system.tol3bus.snoops                         3175904                       # Total snoops (count)
system.tol3bus.snoopTraffic                  69954688                       # Total snoop traffic (bytes)
system.tol3bus.snoop_fanout::samples          7158025                       # Request fanout histogram
system.tol3bus.snoop_fanout::mean            0.022919                       # Request fanout histogram
system.tol3bus.snoop_fanout::stdev           0.149646                       # Request fanout histogram
system.tol3bus.snoop_fanout::underflows             0      0.00%      0.00% # Request fanout histogram
system.tol3bus.snoop_fanout::0                6993969     97.71%     97.71% # Request fanout histogram
system.tol3bus.snoop_fanout::1                 164056      2.29%    100.00% # Request fanout histogram
system.tol3bus.snoop_fanout::overflows              0      0.00%    100.00% # Request fanout histogram
system.tol3bus.snoop_fanout::min_value              0                       # Request fanout histogram
system.tol3bus.snoop_fanout::max_value              1                       # Request fanout histogram
system.tol3bus.snoop_fanout::total            7158025                       # Request fanout histogram
system.tol3bus.reqLayer0.occupancy         3146490027                       # Layer occupancy (ticks)
system.tol3bus.reqLayer0.utilization              0.2                       # Layer utilization (%)
system.tol3bus.respLayer0.occupancy        2652092586                       # Layer occupancy (ticks)
system.tol3bus.respLayer0.utilization             0.2                       # Layer utilization (%)

---------- End Simulation Statistics   ----------
