
---------- Begin Simulation Statistics ----------
sim_seconds                                  1.445039                       # Number of seconds simulated
sim_ticks                                1445038883165                       # Number of ticks simulated
final_tick                               191496348798165                       # Number of ticks from beginning of simulation (restored from checkpoints and never reset)
sim_freq                                 1000000000000                       # Frequency of simulated ticks
host_inst_rate                                 412538                       # Simulator instruction rate (inst/s)
host_op_rate                                   412538                       # Simulator op (including micro ops) rate (op/s)
host_tick_rate                              496777771                       # Simulator tick rate (ticks/s)
host_mem_usage                                2538896                       # Number of bytes of host memory used
host_seconds                                  2908.82                       # Real time elapsed on the host
sim_insts                                  1200000007                       # Number of instructions simulated
sim_ops                                    1200000007                       # Number of ops (including micro ops) simulated
system.voltage_domain.voltage                       1                       # Voltage in Volts
system.clk_domain.clock                          1000                       # Clock period in ticks
system.mem_ctrls0.pwrStateResidencyTicks::UNDEFINED 191496348798165                       # Cumulative time (in ticks) in various power states
system.mem_ctrls0.bytes_read::cpu.inst            192                       # Number of bytes read from this memory
system.mem_ctrls0.bytes_read::cpu.data            192                       # Number of bytes read from this memory
system.mem_ctrls0.bytes_read::switch_cpus.inst        12992                       # Number of bytes read from this memory
system.mem_ctrls0.bytes_read::switch_cpus.data     21104384                       # Number of bytes read from this memory
system.mem_ctrls0.bytes_read::switch_cpus_1.inst          384                       # Number of bytes read from this memory
system.mem_ctrls0.bytes_read::switch_cpus_1.data      4672512                       # Number of bytes read from this memory
system.mem_ctrls0.bytes_read::total          25790656                       # Number of bytes read from this memory
system.mem_ctrls0.bytes_inst_read::cpu.inst          192                       # Number of instructions bytes read from this memory
system.mem_ctrls0.bytes_inst_read::switch_cpus.inst        12992                       # Number of instructions bytes read from this memory
system.mem_ctrls0.bytes_inst_read::switch_cpus_1.inst          384                       # Number of instructions bytes read from this memory
system.mem_ctrls0.bytes_inst_read::total        13568                       # Number of instructions bytes read from this memory
system.mem_ctrls0.bytes_written::writebacks     17439168                       # Number of bytes written to this memory
system.mem_ctrls0.bytes_written::total       17439168                       # Number of bytes written to this memory
system.mem_ctrls0.num_reads::cpu.inst               3                       # Number of read requests responded to by this memory
system.mem_ctrls0.num_reads::cpu.data               3                       # Number of read requests responded to by this memory
system.mem_ctrls0.num_reads::switch_cpus.inst          203                       # Number of read requests responded to by this memory
system.mem_ctrls0.num_reads::switch_cpus.data       329756                       # Number of read requests responded to by this memory
system.mem_ctrls0.num_reads::switch_cpus_1.inst            6                       # Number of read requests responded to by this memory
system.mem_ctrls0.num_reads::switch_cpus_1.data        73008                       # Number of read requests responded to by this memory
system.mem_ctrls0.num_reads::total             402979                       # Number of read requests responded to by this memory
system.mem_ctrls0.num_writes::writebacks       272487                       # Number of write requests responded to by this memory
system.mem_ctrls0.num_writes::total            272487                       # Number of write requests responded to by this memory
system.mem_ctrls0.bw_read::cpu.inst               133                       # Total read bandwidth from this memory (bytes/s)
system.mem_ctrls0.bw_read::cpu.data               133                       # Total read bandwidth from this memory (bytes/s)
system.mem_ctrls0.bw_read::switch_cpus.inst         8991                       # Total read bandwidth from this memory (bytes/s)
system.mem_ctrls0.bw_read::switch_cpus.data     14604717                       # Total read bandwidth from this memory (bytes/s)
system.mem_ctrls0.bw_read::switch_cpus_1.inst          266                       # Total read bandwidth from this memory (bytes/s)
system.mem_ctrls0.bw_read::switch_cpus_1.data      3233485                       # Total read bandwidth from this memory (bytes/s)
system.mem_ctrls0.bw_read::total             17847725                       # Total read bandwidth from this memory (bytes/s)
system.mem_ctrls0.bw_inst_read::cpu.inst          133                       # Instruction read bandwidth from this memory (bytes/s)
system.mem_ctrls0.bw_inst_read::switch_cpus.inst         8991                       # Instruction read bandwidth from this memory (bytes/s)
system.mem_ctrls0.bw_inst_read::switch_cpus_1.inst          266                       # Instruction read bandwidth from this memory (bytes/s)
system.mem_ctrls0.bw_inst_read::total            9389                       # Instruction read bandwidth from this memory (bytes/s)
system.mem_ctrls0.bw_write::writebacks       12068304                       # Write bandwidth from this memory (bytes/s)
system.mem_ctrls0.bw_write::total            12068304                       # Write bandwidth from this memory (bytes/s)
system.mem_ctrls0.bw_total::writebacks       12068304                       # Total bandwidth to/from this memory (bytes/s)
system.mem_ctrls0.bw_total::cpu.inst              133                       # Total bandwidth to/from this memory (bytes/s)
system.mem_ctrls0.bw_total::cpu.data              133                       # Total bandwidth to/from this memory (bytes/s)
system.mem_ctrls0.bw_total::switch_cpus.inst         8991                       # Total bandwidth to/from this memory (bytes/s)
system.mem_ctrls0.bw_total::switch_cpus.data     14604717                       # Total bandwidth to/from this memory (bytes/s)
system.mem_ctrls0.bw_total::switch_cpus_1.inst          266                       # Total bandwidth to/from this memory (bytes/s)
system.mem_ctrls0.bw_total::switch_cpus_1.data      3233485                       # Total bandwidth to/from this memory (bytes/s)
system.mem_ctrls0.bw_total::total            29916028                       # Total bandwidth to/from this memory (bytes/s)
system.mem_ctrls0.readReqs                     402979                       # Number of read requests accepted
system.mem_ctrls0.writeReqs                    272487                       # Number of write requests accepted
system.mem_ctrls0.readBursts                   402979                       # Number of DRAM read bursts, including those serviced by the write queue
system.mem_ctrls0.writeBursts                  272487                       # Number of DRAM write bursts, including those merged in the write queue
system.mem_ctrls0.bytesReadDRAM              25730304                       # Total number of bytes read from DRAM
system.mem_ctrls0.bytesReadWrQ                  60352                       # Total number of bytes read from write queue
system.mem_ctrls0.bytesWritten               17437760                       # Total number of bytes written to DRAM
system.mem_ctrls0.bytesReadSys               25790656                       # Total read bytes from the system interface side
system.mem_ctrls0.bytesWrittenSys            17439168                       # Total written bytes from the system interface side
system.mem_ctrls0.servicedByWrQ                   943                       # Number of DRAM read bursts serviced by the write queue
system.mem_ctrls0.mergedWrBursts                    2                       # Number of DRAM write bursts merged with an existing one
system.mem_ctrls0.neitherReadNorWriteReqs            0                       # Number of requests that are neither read nor write
system.mem_ctrls0.perBankRdBursts::0            26090                       # Per bank write bursts
system.mem_ctrls0.perBankRdBursts::1            25603                       # Per bank write bursts
system.mem_ctrls0.perBankRdBursts::2            26606                       # Per bank write bursts
system.mem_ctrls0.perBankRdBursts::3            25854                       # Per bank write bursts
system.mem_ctrls0.perBankRdBursts::4            23538                       # Per bank write bursts
system.mem_ctrls0.perBankRdBursts::5            24520                       # Per bank write bursts
system.mem_ctrls0.perBankRdBursts::6            24876                       # Per bank write bursts
system.mem_ctrls0.perBankRdBursts::7            25822                       # Per bank write bursts
system.mem_ctrls0.perBankRdBursts::8            26057                       # Per bank write bursts
system.mem_ctrls0.perBankRdBursts::9            24852                       # Per bank write bursts
system.mem_ctrls0.perBankRdBursts::10           25360                       # Per bank write bursts
system.mem_ctrls0.perBankRdBursts::11           24417                       # Per bank write bursts
system.mem_ctrls0.perBankRdBursts::12           23395                       # Per bank write bursts
system.mem_ctrls0.perBankRdBursts::13           24275                       # Per bank write bursts
system.mem_ctrls0.perBankRdBursts::14           24700                       # Per bank write bursts
system.mem_ctrls0.perBankRdBursts::15           26071                       # Per bank write bursts
system.mem_ctrls0.perBankWrBursts::0            17820                       # Per bank write bursts
system.mem_ctrls0.perBankWrBursts::1            17500                       # Per bank write bursts
system.mem_ctrls0.perBankWrBursts::2            17998                       # Per bank write bursts
system.mem_ctrls0.perBankWrBursts::3            17289                       # Per bank write bursts
system.mem_ctrls0.perBankWrBursts::4            15415                       # Per bank write bursts
system.mem_ctrls0.perBankWrBursts::5            16517                       # Per bank write bursts
system.mem_ctrls0.perBankWrBursts::6            17005                       # Per bank write bursts
system.mem_ctrls0.perBankWrBursts::7            17739                       # Per bank write bursts
system.mem_ctrls0.perBankWrBursts::8            17746                       # Per bank write bursts
system.mem_ctrls0.perBankWrBursts::9            16915                       # Per bank write bursts
system.mem_ctrls0.perBankWrBursts::10           17078                       # Per bank write bursts
system.mem_ctrls0.perBankWrBursts::11           16554                       # Per bank write bursts
system.mem_ctrls0.perBankWrBursts::12           15961                       # Per bank write bursts
system.mem_ctrls0.perBankWrBursts::13           16330                       # Per bank write bursts
system.mem_ctrls0.perBankWrBursts::14           16746                       # Per bank write bursts
system.mem_ctrls0.perBankWrBursts::15           17852                       # Per bank write bursts
system.mem_ctrls0.numRdRetry                        0                       # Number of times read queue was full causing retry
system.mem_ctrls0.numWrRetry                        0                       # Number of times write queue was full causing retry
system.mem_ctrls0.totGap                 1444933302318                       # Total gap between requests
system.mem_ctrls0.readPktSize::0                    0                       # Read request sizes (log2)
system.mem_ctrls0.readPktSize::1                    0                       # Read request sizes (log2)
system.mem_ctrls0.readPktSize::2                    0                       # Read request sizes (log2)
system.mem_ctrls0.readPktSize::3                    0                       # Read request sizes (log2)
system.mem_ctrls0.readPktSize::4                    0                       # Read request sizes (log2)
system.mem_ctrls0.readPktSize::5                    0                       # Read request sizes (log2)
system.mem_ctrls0.readPktSize::6               402979                       # Read request sizes (log2)
system.mem_ctrls0.writePktSize::0                   0                       # Write request sizes (log2)
system.mem_ctrls0.writePktSize::1                   0                       # Write request sizes (log2)
system.mem_ctrls0.writePktSize::2                   0                       # Write request sizes (log2)
system.mem_ctrls0.writePktSize::3                   0                       # Write request sizes (log2)
system.mem_ctrls0.writePktSize::4                   0                       # Write request sizes (log2)
system.mem_ctrls0.writePktSize::5                   0                       # Write request sizes (log2)
system.mem_ctrls0.writePktSize::6              272487                       # Write request sizes (log2)
system.mem_ctrls0.rdQLenPdf::0                 396467                       # What read queue length does an incoming req see
system.mem_ctrls0.rdQLenPdf::1                   5466                       # What read queue length does an incoming req see
system.mem_ctrls0.rdQLenPdf::2                     98                       # What read queue length does an incoming req see
system.mem_ctrls0.rdQLenPdf::3                      4                       # What read queue length does an incoming req see
system.mem_ctrls0.rdQLenPdf::4                      1                       # What read queue length does an incoming req see
system.mem_ctrls0.rdQLenPdf::5                      0                       # What read queue length does an incoming req see
system.mem_ctrls0.rdQLenPdf::6                      0                       # What read queue length does an incoming req see
system.mem_ctrls0.rdQLenPdf::7                      0                       # What read queue length does an incoming req see
system.mem_ctrls0.rdQLenPdf::8                      0                       # What read queue length does an incoming req see
system.mem_ctrls0.rdQLenPdf::9                      0                       # What read queue length does an incoming req see
system.mem_ctrls0.rdQLenPdf::10                     0                       # What read queue length does an incoming req see
system.mem_ctrls0.rdQLenPdf::11                     0                       # What read queue length does an incoming req see
system.mem_ctrls0.rdQLenPdf::12                     0                       # What read queue length does an incoming req see
system.mem_ctrls0.rdQLenPdf::13                     0                       # What read queue length does an incoming req see
system.mem_ctrls0.rdQLenPdf::14                     0                       # What read queue length does an incoming req see
system.mem_ctrls0.rdQLenPdf::15                     0                       # What read queue length does an incoming req see
system.mem_ctrls0.rdQLenPdf::16                     0                       # What read queue length does an incoming req see
system.mem_ctrls0.rdQLenPdf::17                     0                       # What read queue length does an incoming req see
system.mem_ctrls0.rdQLenPdf::18                     0                       # What read queue length does an incoming req see
system.mem_ctrls0.rdQLenPdf::19                     0                       # What read queue length does an incoming req see
system.mem_ctrls0.rdQLenPdf::20                     0                       # What read queue length does an incoming req see
system.mem_ctrls0.rdQLenPdf::21                     0                       # What read queue length does an incoming req see
system.mem_ctrls0.rdQLenPdf::22                     0                       # What read queue length does an incoming req see
system.mem_ctrls0.rdQLenPdf::23                     0                       # What read queue length does an incoming req see
system.mem_ctrls0.rdQLenPdf::24                     0                       # What read queue length does an incoming req see
system.mem_ctrls0.rdQLenPdf::25                     0                       # What read queue length does an incoming req see
system.mem_ctrls0.rdQLenPdf::26                     0                       # What read queue length does an incoming req see
system.mem_ctrls0.rdQLenPdf::27                     0                       # What read queue length does an incoming req see
system.mem_ctrls0.rdQLenPdf::28                     0                       # What read queue length does an incoming req see
system.mem_ctrls0.rdQLenPdf::29                     0                       # What read queue length does an incoming req see
system.mem_ctrls0.rdQLenPdf::30                     0                       # What read queue length does an incoming req see
system.mem_ctrls0.rdQLenPdf::31                     0                       # What read queue length does an incoming req see
system.mem_ctrls0.wrQLenPdf::0                      2                       # What write queue length does an incoming req see
system.mem_ctrls0.wrQLenPdf::1                      2                       # What write queue length does an incoming req see
system.mem_ctrls0.wrQLenPdf::2                      2                       # What write queue length does an incoming req see
system.mem_ctrls0.wrQLenPdf::3                      2                       # What write queue length does an incoming req see
system.mem_ctrls0.wrQLenPdf::4                      2                       # What write queue length does an incoming req see
system.mem_ctrls0.wrQLenPdf::5                      2                       # What write queue length does an incoming req see
system.mem_ctrls0.wrQLenPdf::6                      2                       # What write queue length does an incoming req see
system.mem_ctrls0.wrQLenPdf::7                      2                       # What write queue length does an incoming req see
system.mem_ctrls0.wrQLenPdf::8                      2                       # What write queue length does an incoming req see
system.mem_ctrls0.wrQLenPdf::9                      2                       # What write queue length does an incoming req see
system.mem_ctrls0.wrQLenPdf::10                     2                       # What write queue length does an incoming req see
system.mem_ctrls0.wrQLenPdf::11                     2                       # What write queue length does an incoming req see
system.mem_ctrls0.wrQLenPdf::12                     2                       # What write queue length does an incoming req see
system.mem_ctrls0.wrQLenPdf::13                     2                       # What write queue length does an incoming req see
system.mem_ctrls0.wrQLenPdf::14                     2                       # What write queue length does an incoming req see
system.mem_ctrls0.wrQLenPdf::15                 12872                       # What write queue length does an incoming req see
system.mem_ctrls0.wrQLenPdf::16                 13117                       # What write queue length does an incoming req see
system.mem_ctrls0.wrQLenPdf::17                 15094                       # What write queue length does an incoming req see
system.mem_ctrls0.wrQLenPdf::18                 15401                       # What write queue length does an incoming req see
system.mem_ctrls0.wrQLenPdf::19                 15413                       # What write queue length does an incoming req see
system.mem_ctrls0.wrQLenPdf::20                 15411                       # What write queue length does an incoming req see
system.mem_ctrls0.wrQLenPdf::21                 15423                       # What write queue length does an incoming req see
system.mem_ctrls0.wrQLenPdf::22                 15495                       # What write queue length does an incoming req see
system.mem_ctrls0.wrQLenPdf::23                 15509                       # What write queue length does an incoming req see
system.mem_ctrls0.wrQLenPdf::24                 15444                       # What write queue length does an incoming req see
system.mem_ctrls0.wrQLenPdf::25                 15467                       # What write queue length does an incoming req see
system.mem_ctrls0.wrQLenPdf::26                 15434                       # What write queue length does an incoming req see
system.mem_ctrls0.wrQLenPdf::27                 15414                       # What write queue length does an incoming req see
system.mem_ctrls0.wrQLenPdf::28                 15391                       # What write queue length does an incoming req see
system.mem_ctrls0.wrQLenPdf::29                 15382                       # What write queue length does an incoming req see
system.mem_ctrls0.wrQLenPdf::30                 15422                       # What write queue length does an incoming req see
system.mem_ctrls0.wrQLenPdf::31                 15346                       # What write queue length does an incoming req see
system.mem_ctrls0.wrQLenPdf::32                 15331                       # What write queue length does an incoming req see
system.mem_ctrls0.wrQLenPdf::33                    85                       # What write queue length does an incoming req see
system.mem_ctrls0.wrQLenPdf::34                     4                       # What write queue length does an incoming req see
system.mem_ctrls0.wrQLenPdf::35                     0                       # What write queue length does an incoming req see
system.mem_ctrls0.wrQLenPdf::36                     0                       # What write queue length does an incoming req see
system.mem_ctrls0.wrQLenPdf::37                     0                       # What write queue length does an incoming req see
system.mem_ctrls0.wrQLenPdf::38                     0                       # What write queue length does an incoming req see
system.mem_ctrls0.wrQLenPdf::39                     0                       # What write queue length does an incoming req see
system.mem_ctrls0.wrQLenPdf::40                     0                       # What write queue length does an incoming req see
system.mem_ctrls0.wrQLenPdf::41                     0                       # What write queue length does an incoming req see
system.mem_ctrls0.wrQLenPdf::42                     0                       # What write queue length does an incoming req see
system.mem_ctrls0.wrQLenPdf::43                     0                       # What write queue length does an incoming req see
system.mem_ctrls0.wrQLenPdf::44                     0                       # What write queue length does an incoming req see
system.mem_ctrls0.wrQLenPdf::45                     0                       # What write queue length does an incoming req see
system.mem_ctrls0.wrQLenPdf::46                     0                       # What write queue length does an incoming req see
system.mem_ctrls0.wrQLenPdf::47                     0                       # What write queue length does an incoming req see
system.mem_ctrls0.wrQLenPdf::48                     0                       # What write queue length does an incoming req see
system.mem_ctrls0.wrQLenPdf::49                     0                       # What write queue length does an incoming req see
system.mem_ctrls0.wrQLenPdf::50                     0                       # What write queue length does an incoming req see
system.mem_ctrls0.wrQLenPdf::51                     0                       # What write queue length does an incoming req see
system.mem_ctrls0.wrQLenPdf::52                     0                       # What write queue length does an incoming req see
system.mem_ctrls0.wrQLenPdf::53                     0                       # What write queue length does an incoming req see
system.mem_ctrls0.wrQLenPdf::54                     0                       # What write queue length does an incoming req see
system.mem_ctrls0.wrQLenPdf::55                     0                       # What write queue length does an incoming req see
system.mem_ctrls0.wrQLenPdf::56                     0                       # What write queue length does an incoming req see
system.mem_ctrls0.wrQLenPdf::57                     0                       # What write queue length does an incoming req see
system.mem_ctrls0.wrQLenPdf::58                     0                       # What write queue length does an incoming req see
system.mem_ctrls0.wrQLenPdf::59                     0                       # What write queue length does an incoming req see
system.mem_ctrls0.wrQLenPdf::60                     0                       # What write queue length does an incoming req see
system.mem_ctrls0.wrQLenPdf::61                     0                       # What write queue length does an incoming req see
system.mem_ctrls0.wrQLenPdf::62                     0                       # What write queue length does an incoming req see
system.mem_ctrls0.wrQLenPdf::63                     0                       # What write queue length does an incoming req see
system.mem_ctrls0.bytesPerActivate::samples       447377                       # Bytes accessed per row activation
system.mem_ctrls0.bytesPerActivate::mean    96.491469                       # Bytes accessed per row activation
system.mem_ctrls0.bytesPerActivate::gmean    80.912956                       # Bytes accessed per row activation
system.mem_ctrls0.bytesPerActivate::stdev    95.471040                       # Bytes accessed per row activation
system.mem_ctrls0.bytesPerActivate::0-127       343497     76.78%     76.78% # Bytes accessed per row activation
system.mem_ctrls0.bytesPerActivate::128-255        80527     18.00%     94.78% # Bytes accessed per row activation
system.mem_ctrls0.bytesPerActivate::256-383        13664      3.05%     97.83% # Bytes accessed per row activation
system.mem_ctrls0.bytesPerActivate::384-511         4735      1.06%     98.89% # Bytes accessed per row activation
system.mem_ctrls0.bytesPerActivate::512-639         1357      0.30%     99.20% # Bytes accessed per row activation
system.mem_ctrls0.bytesPerActivate::640-767          884      0.20%     99.39% # Bytes accessed per row activation
system.mem_ctrls0.bytesPerActivate::768-895          608      0.14%     99.53% # Bytes accessed per row activation
system.mem_ctrls0.bytesPerActivate::896-1023          522      0.12%     99.65% # Bytes accessed per row activation
system.mem_ctrls0.bytesPerActivate::1024-1151         1583      0.35%    100.00% # Bytes accessed per row activation
system.mem_ctrls0.bytesPerActivate::total       447377                       # Bytes accessed per row activation
system.mem_ctrls0.rdPerTurnAround::samples        15326                       # Reads before turning the bus around for writes
system.mem_ctrls0.rdPerTurnAround::mean     26.231894                       # Reads before turning the bus around for writes
system.mem_ctrls0.rdPerTurnAround::stdev   234.009783                       # Reads before turning the bus around for writes
system.mem_ctrls0.rdPerTurnAround::0-1023        15325     99.99%     99.99% # Reads before turning the bus around for writes
system.mem_ctrls0.rdPerTurnAround::28672-29695            1      0.01%    100.00% # Reads before turning the bus around for writes
system.mem_ctrls0.rdPerTurnAround::total        15326                       # Reads before turning the bus around for writes
system.mem_ctrls0.wrPerTurnAround::samples        15326                       # Writes before turning the bus around for reads
system.mem_ctrls0.wrPerTurnAround::mean     17.777959                       # Writes before turning the bus around for reads
system.mem_ctrls0.wrPerTurnAround::gmean    17.758498                       # Writes before turning the bus around for reads
system.mem_ctrls0.wrPerTurnAround::stdev     0.818282                       # Writes before turning the bus around for reads
system.mem_ctrls0.wrPerTurnAround::16            2278     14.86%     14.86% # Writes before turning the bus around for reads
system.mem_ctrls0.wrPerTurnAround::17             152      0.99%     15.86% # Writes before turning the bus around for reads
system.mem_ctrls0.wrPerTurnAround::18           11741     76.61%     92.46% # Writes before turning the bus around for reads
system.mem_ctrls0.wrPerTurnAround::19            1038      6.77%     99.24% # Writes before turning the bus around for reads
system.mem_ctrls0.wrPerTurnAround::20              96      0.63%     99.86% # Writes before turning the bus around for reads
system.mem_ctrls0.wrPerTurnAround::21              17      0.11%     99.97% # Writes before turning the bus around for reads
system.mem_ctrls0.wrPerTurnAround::22               2      0.01%     99.99% # Writes before turning the bus around for reads
system.mem_ctrls0.wrPerTurnAround::23               1      0.01%     99.99% # Writes before turning the bus around for reads
system.mem_ctrls0.wrPerTurnAround::29               1      0.01%    100.00% # Writes before turning the bus around for reads
system.mem_ctrls0.wrPerTurnAround::total        15326                       # Writes before turning the bus around for reads
system.mem_ctrls0.totQLat                 21942914915                       # Total ticks spent queuing
system.mem_ctrls0.totMemAccLat            29481089915                       # Total ticks spent from burst creation until serviced by the DRAM
system.mem_ctrls0.totBusLat                2010180000                       # Total ticks spent in databus transfers
system.mem_ctrls0.avgQLat                    54579.48                       # Average queueing delay per DRAM burst
system.mem_ctrls0.avgBusLat                   5000.00                       # Average bus latency per DRAM burst
system.mem_ctrls0.avgMemAccLat               73329.48                       # Average memory access latency per DRAM burst
system.mem_ctrls0.avgRdBW                       17.81                       # Average DRAM read bandwidth in MiByte/s
system.mem_ctrls0.avgWrBW                       12.07                       # Average achieved write bandwidth in MiByte/s
system.mem_ctrls0.avgRdBWSys                    17.85                       # Average system read bandwidth in MiByte/s
system.mem_ctrls0.avgWrBWSys                    12.07                       # Average system write bandwidth in MiByte/s
system.mem_ctrls0.peakBW                     12800.00                       # Theoretical peak bandwidth in MiByte/s
system.mem_ctrls0.busUtil                        0.23                       # Data bus utilization in percentage
system.mem_ctrls0.busUtilRead                    0.14                       # Data bus utilization in percentage for reads
system.mem_ctrls0.busUtilWrite                   0.09                       # Data bus utilization in percentage for writes
system.mem_ctrls0.avgRdQLen                      1.00                       # Average read queue length when enqueuing
system.mem_ctrls0.avgWrQLen                     23.48                       # Average write queue length when enqueuing
system.mem_ctrls0.readRowHits                  176117                       # Number of row buffer hits during reads
system.mem_ctrls0.writeRowHits                  51007                       # Number of row buffer hits during writes
system.mem_ctrls0.readRowHitRate                43.81                       # Row buffer hit rate for reads
system.mem_ctrls0.writeRowHitRate               18.72                       # Row buffer hit rate for writes
system.mem_ctrls0.avgGap                   2139165.11                       # Average gap between requests
system.mem_ctrls0.pageHitRate                   33.67                       # Row buffer hit rate, read and write combined
system.mem_ctrls0_0.actEnergy              1608677700                       # Energy for activate commands per rank (pJ)
system.mem_ctrls0_0.preEnergy               855032475                       # Energy for precharge commands per rank (pJ)
system.mem_ctrls0_0.readEnergy             1448770260                       # Energy for read commands per rank (pJ)
system.mem_ctrls0_0.writeEnergy             716617260                       # Energy for write commands per rank (pJ)
system.mem_ctrls0_0.refreshEnergy        56560402080.000015                       # Energy for refresh commands per rank (pJ)
system.mem_ctrls0_0.actBackEnergy         29943365400                       # Energy for active background per rank (pJ)
system.mem_ctrls0_0.preBackEnergy          2701532160                       # Energy for precharge background per rank (pJ)
system.mem_ctrls0_0.actPowerDownEnergy   147031894440                       # Energy for active power-down per rank (pJ)
system.mem_ctrls0_0.prePowerDownEnergy    77515168800                       # Energy for precharge power-down per rank (pJ)
system.mem_ctrls0_0.selfRefreshEnergy    212636812695                       # Energy for self refresh per rank (pJ)
system.mem_ctrls0_0.totalEnergy          531040874850                       # Total energy per rank (pJ)
system.mem_ctrls0_0.averagePower           367.492443                       # Core power per rank (mW)
system.mem_ctrls0_0.totalIdleTime        1371976490222                       # Total Idle time Per DRAM Rank
system.mem_ctrls0_0.memoryStateTime::IDLE   4761676351                       # Time in different power states
system.mem_ctrls0_0.memoryStateTime::REF  24026904000                       # Time in different power states
system.mem_ctrls0_0.memoryStateTime::SREF 847987438665                       # Time in different power states
system.mem_ctrls0_0.memoryStateTime::PRE_PDN 201862121398                       # Time in different power states
system.mem_ctrls0_0.memoryStateTime::ACT  43961975699                       # Time in different power states
system.mem_ctrls0_0.memoryStateTime::ACT_PDN 322438767052                       # Time in different power states
system.mem_ctrls0_1.actEnergy              1585594080                       # Energy for activate commands per rank (pJ)
system.mem_ctrls0_1.preEnergy               842763240                       # Energy for precharge commands per rank (pJ)
system.mem_ctrls0_1.readEnergy             1421766780                       # Energy for read commands per rank (pJ)
system.mem_ctrls0_1.writeEnergy             705650040                       # Energy for write commands per rank (pJ)
system.mem_ctrls0_1.refreshEnergy        57306575040.000015                       # Energy for refresh commands per rank (pJ)
system.mem_ctrls0_1.actBackEnergy         30092523000                       # Energy for active background per rank (pJ)
system.mem_ctrls0_1.preBackEnergy          2724458400                       # Energy for precharge background per rank (pJ)
system.mem_ctrls0_1.actPowerDownEnergy   148847769660                       # Energy for active power-down per rank (pJ)
system.mem_ctrls0_1.prePowerDownEnergy    79145306400                       # Energy for precharge power-down per rank (pJ)
system.mem_ctrls0_1.selfRefreshEnergy    210633538845                       # Energy for self refresh per rank (pJ)
system.mem_ctrls0_1.totalEnergy          533327252655                       # Total energy per rank (pJ)
system.mem_ctrls0_1.averagePower           369.074668                       # Core power per rank (mW)
system.mem_ctrls0_1.totalIdleTime        1371730034081                       # Total Idle time Per DRAM Rank
system.mem_ctrls0_1.memoryStateTime::IDLE   4795110793                       # Time in different power states
system.mem_ctrls0_1.memoryStateTime::REF  24342892000                       # Time in different power states
system.mem_ctrls0_1.memoryStateTime::SREF 839375960165                       # Time in different power states
system.mem_ctrls0_1.memoryStateTime::PRE_PDN 206106978585                       # Time in different power states
system.mem_ctrls0_1.memoryStateTime::ACT  43997696905                       # Time in different power states
system.mem_ctrls0_1.memoryStateTime::ACT_PDN 326420244717                       # Time in different power states
system.mem_ctrls1.pwrStateResidencyTicks::UNDEFINED 191496348798165                       # Cumulative time (in ticks) in various power states
system.mem_ctrls1.bytes_read::cpu.inst            128                       # Number of bytes read from this memory
system.mem_ctrls1.bytes_read::cpu.data             64                       # Number of bytes read from this memory
system.mem_ctrls1.bytes_read::switch_cpus.inst        14144                       # Number of bytes read from this memory
system.mem_ctrls1.bytes_read::switch_cpus.data     21126272                       # Number of bytes read from this memory
system.mem_ctrls1.bytes_read::switch_cpus_1.inst          768                       # Number of bytes read from this memory
system.mem_ctrls1.bytes_read::switch_cpus_1.data      4685568                       # Number of bytes read from this memory
system.mem_ctrls1.bytes_read::total          25826944                       # Number of bytes read from this memory
system.mem_ctrls1.bytes_inst_read::cpu.inst          128                       # Number of instructions bytes read from this memory
system.mem_ctrls1.bytes_inst_read::switch_cpus.inst        14144                       # Number of instructions bytes read from this memory
system.mem_ctrls1.bytes_inst_read::switch_cpus_1.inst          768                       # Number of instructions bytes read from this memory
system.mem_ctrls1.bytes_inst_read::total        15040                       # Number of instructions bytes read from this memory
system.mem_ctrls1.bytes_written::writebacks     17442304                       # Number of bytes written to this memory
system.mem_ctrls1.bytes_written::total       17442304                       # Number of bytes written to this memory
system.mem_ctrls1.num_reads::cpu.inst               2                       # Number of read requests responded to by this memory
system.mem_ctrls1.num_reads::cpu.data               1                       # Number of read requests responded to by this memory
system.mem_ctrls1.num_reads::switch_cpus.inst          221                       # Number of read requests responded to by this memory
system.mem_ctrls1.num_reads::switch_cpus.data       330098                       # Number of read requests responded to by this memory
system.mem_ctrls1.num_reads::switch_cpus_1.inst           12                       # Number of read requests responded to by this memory
system.mem_ctrls1.num_reads::switch_cpus_1.data        73212                       # Number of read requests responded to by this memory
system.mem_ctrls1.num_reads::total             403546                       # Number of read requests responded to by this memory
system.mem_ctrls1.num_writes::writebacks       272536                       # Number of write requests responded to by this memory
system.mem_ctrls1.num_writes::total            272536                       # Number of write requests responded to by this memory
system.mem_ctrls1.bw_read::cpu.inst                89                       # Total read bandwidth from this memory (bytes/s)
system.mem_ctrls1.bw_read::cpu.data                44                       # Total read bandwidth from this memory (bytes/s)
system.mem_ctrls1.bw_read::switch_cpus.inst         9788                       # Total read bandwidth from this memory (bytes/s)
system.mem_ctrls1.bw_read::switch_cpus.data     14619864                       # Total read bandwidth from this memory (bytes/s)
system.mem_ctrls1.bw_read::switch_cpus_1.inst          531                       # Total read bandwidth from this memory (bytes/s)
system.mem_ctrls1.bw_read::switch_cpus_1.data      3242520                       # Total read bandwidth from this memory (bytes/s)
system.mem_ctrls1.bw_read::total             17872837                       # Total read bandwidth from this memory (bytes/s)
system.mem_ctrls1.bw_inst_read::cpu.inst           89                       # Instruction read bandwidth from this memory (bytes/s)
system.mem_ctrls1.bw_inst_read::switch_cpus.inst         9788                       # Instruction read bandwidth from this memory (bytes/s)
system.mem_ctrls1.bw_inst_read::switch_cpus_1.inst          531                       # Instruction read bandwidth from this memory (bytes/s)
system.mem_ctrls1.bw_inst_read::total           10408                       # Instruction read bandwidth from this memory (bytes/s)
system.mem_ctrls1.bw_write::writebacks       12070474                       # Write bandwidth from this memory (bytes/s)
system.mem_ctrls1.bw_write::total            12070474                       # Write bandwidth from this memory (bytes/s)
system.mem_ctrls1.bw_total::writebacks       12070474                       # Total bandwidth to/from this memory (bytes/s)
system.mem_ctrls1.bw_total::cpu.inst               89                       # Total bandwidth to/from this memory (bytes/s)
system.mem_ctrls1.bw_total::cpu.data               44                       # Total bandwidth to/from this memory (bytes/s)
system.mem_ctrls1.bw_total::switch_cpus.inst         9788                       # Total bandwidth to/from this memory (bytes/s)
system.mem_ctrls1.bw_total::switch_cpus.data     14619864                       # Total bandwidth to/from this memory (bytes/s)
system.mem_ctrls1.bw_total::switch_cpus_1.inst          531                       # Total bandwidth to/from this memory (bytes/s)
system.mem_ctrls1.bw_total::switch_cpus_1.data      3242520                       # Total bandwidth to/from this memory (bytes/s)
system.mem_ctrls1.bw_total::total            29943311                       # Total bandwidth to/from this memory (bytes/s)
system.mem_ctrls1.readReqs                     403546                       # Number of read requests accepted
system.mem_ctrls1.writeReqs                    272536                       # Number of write requests accepted
system.mem_ctrls1.readBursts                   403546                       # Number of DRAM read bursts, including those serviced by the write queue
system.mem_ctrls1.writeBursts                  272536                       # Number of DRAM write bursts, including those merged in the write queue
system.mem_ctrls1.bytesReadDRAM              25765120                       # Total number of bytes read from DRAM
system.mem_ctrls1.bytesReadWrQ                  61824                       # Total number of bytes read from write queue
system.mem_ctrls1.bytesWritten               17440512                       # Total number of bytes written to DRAM
system.mem_ctrls1.bytesReadSys               25826944                       # Total read bytes from the system interface side
system.mem_ctrls1.bytesWrittenSys            17442304                       # Total written bytes from the system interface side
system.mem_ctrls1.servicedByWrQ                   966                       # Number of DRAM read bursts serviced by the write queue
system.mem_ctrls1.mergedWrBursts                    4                       # Number of DRAM write bursts merged with an existing one
system.mem_ctrls1.neitherReadNorWriteReqs            0                       # Number of requests that are neither read nor write
system.mem_ctrls1.perBankRdBursts::0            26221                       # Per bank write bursts
system.mem_ctrls1.perBankRdBursts::1            25685                       # Per bank write bursts
system.mem_ctrls1.perBankRdBursts::2            26879                       # Per bank write bursts
system.mem_ctrls1.perBankRdBursts::3            25757                       # Per bank write bursts
system.mem_ctrls1.perBankRdBursts::4            23383                       # Per bank write bursts
system.mem_ctrls1.perBankRdBursts::5            24716                       # Per bank write bursts
system.mem_ctrls1.perBankRdBursts::6            24824                       # Per bank write bursts
system.mem_ctrls1.perBankRdBursts::7            25744                       # Per bank write bursts
system.mem_ctrls1.perBankRdBursts::8            25978                       # Per bank write bursts
system.mem_ctrls1.perBankRdBursts::9            24553                       # Per bank write bursts
system.mem_ctrls1.perBankRdBursts::10           25335                       # Per bank write bursts
system.mem_ctrls1.perBankRdBursts::11           24590                       # Per bank write bursts
system.mem_ctrls1.perBankRdBursts::12           23397                       # Per bank write bursts
system.mem_ctrls1.perBankRdBursts::13           24339                       # Per bank write bursts
system.mem_ctrls1.perBankRdBursts::14           24799                       # Per bank write bursts
system.mem_ctrls1.perBankRdBursts::15           26380                       # Per bank write bursts
system.mem_ctrls1.perBankWrBursts::0            17847                       # Per bank write bursts
system.mem_ctrls1.perBankWrBursts::1            17534                       # Per bank write bursts
system.mem_ctrls1.perBankWrBursts::2            18079                       # Per bank write bursts
system.mem_ctrls1.perBankWrBursts::3            17213                       # Per bank write bursts
system.mem_ctrls1.perBankWrBursts::4            15383                       # Per bank write bursts
system.mem_ctrls1.perBankWrBursts::5            16653                       # Per bank write bursts
system.mem_ctrls1.perBankWrBursts::6            16897                       # Per bank write bursts
system.mem_ctrls1.perBankWrBursts::7            17666                       # Per bank write bursts
system.mem_ctrls1.perBankWrBursts::8            17608                       # Per bank write bursts
system.mem_ctrls1.perBankWrBursts::9            16723                       # Per bank write bursts
system.mem_ctrls1.perBankWrBursts::10           17065                       # Per bank write bursts
system.mem_ctrls1.perBankWrBursts::11           16668                       # Per bank write bursts
system.mem_ctrls1.perBankWrBursts::12           15913                       # Per bank write bursts
system.mem_ctrls1.perBankWrBursts::13           16282                       # Per bank write bursts
system.mem_ctrls1.perBankWrBursts::14           16815                       # Per bank write bursts
system.mem_ctrls1.perBankWrBursts::15           18162                       # Per bank write bursts
system.mem_ctrls1.numRdRetry                        0                       # Number of times read queue was full causing retry
system.mem_ctrls1.numWrRetry                        0                       # Number of times write queue was full causing retry
system.mem_ctrls1.totGap                 1444857973722                       # Total gap between requests
system.mem_ctrls1.readPktSize::0                    0                       # Read request sizes (log2)
system.mem_ctrls1.readPktSize::1                    0                       # Read request sizes (log2)
system.mem_ctrls1.readPktSize::2                    0                       # Read request sizes (log2)
system.mem_ctrls1.readPktSize::3                    0                       # Read request sizes (log2)
system.mem_ctrls1.readPktSize::4                    0                       # Read request sizes (log2)
system.mem_ctrls1.readPktSize::5                    0                       # Read request sizes (log2)
system.mem_ctrls1.readPktSize::6               403546                       # Read request sizes (log2)
system.mem_ctrls1.writePktSize::0                   0                       # Write request sizes (log2)
system.mem_ctrls1.writePktSize::1                   0                       # Write request sizes (log2)
system.mem_ctrls1.writePktSize::2                   0                       # Write request sizes (log2)
system.mem_ctrls1.writePktSize::3                   0                       # Write request sizes (log2)
system.mem_ctrls1.writePktSize::4                   0                       # Write request sizes (log2)
system.mem_ctrls1.writePktSize::5                   0                       # Write request sizes (log2)
system.mem_ctrls1.writePktSize::6              272536                       # Write request sizes (log2)
system.mem_ctrls1.rdQLenPdf::0                 397005                       # What read queue length does an incoming req see
system.mem_ctrls1.rdQLenPdf::1                   5457                       # What read queue length does an incoming req see
system.mem_ctrls1.rdQLenPdf::2                    108                       # What read queue length does an incoming req see
system.mem_ctrls1.rdQLenPdf::3                     10                       # What read queue length does an incoming req see
system.mem_ctrls1.rdQLenPdf::4                      0                       # What read queue length does an incoming req see
system.mem_ctrls1.rdQLenPdf::5                      0                       # What read queue length does an incoming req see
system.mem_ctrls1.rdQLenPdf::6                      0                       # What read queue length does an incoming req see
system.mem_ctrls1.rdQLenPdf::7                      0                       # What read queue length does an incoming req see
system.mem_ctrls1.rdQLenPdf::8                      0                       # What read queue length does an incoming req see
system.mem_ctrls1.rdQLenPdf::9                      0                       # What read queue length does an incoming req see
system.mem_ctrls1.rdQLenPdf::10                     0                       # What read queue length does an incoming req see
system.mem_ctrls1.rdQLenPdf::11                     0                       # What read queue length does an incoming req see
system.mem_ctrls1.rdQLenPdf::12                     0                       # What read queue length does an incoming req see
system.mem_ctrls1.rdQLenPdf::13                     0                       # What read queue length does an incoming req see
system.mem_ctrls1.rdQLenPdf::14                     0                       # What read queue length does an incoming req see
system.mem_ctrls1.rdQLenPdf::15                     0                       # What read queue length does an incoming req see
system.mem_ctrls1.rdQLenPdf::16                     0                       # What read queue length does an incoming req see
system.mem_ctrls1.rdQLenPdf::17                     0                       # What read queue length does an incoming req see
system.mem_ctrls1.rdQLenPdf::18                     0                       # What read queue length does an incoming req see
system.mem_ctrls1.rdQLenPdf::19                     0                       # What read queue length does an incoming req see
system.mem_ctrls1.rdQLenPdf::20                     0                       # What read queue length does an incoming req see
system.mem_ctrls1.rdQLenPdf::21                     0                       # What read queue length does an incoming req see
system.mem_ctrls1.rdQLenPdf::22                     0                       # What read queue length does an incoming req see
system.mem_ctrls1.rdQLenPdf::23                     0                       # What read queue length does an incoming req see
system.mem_ctrls1.rdQLenPdf::24                     0                       # What read queue length does an incoming req see
system.mem_ctrls1.rdQLenPdf::25                     0                       # What read queue length does an incoming req see
system.mem_ctrls1.rdQLenPdf::26                     0                       # What read queue length does an incoming req see
system.mem_ctrls1.rdQLenPdf::27                     0                       # What read queue length does an incoming req see
system.mem_ctrls1.rdQLenPdf::28                     0                       # What read queue length does an incoming req see
system.mem_ctrls1.rdQLenPdf::29                     0                       # What read queue length does an incoming req see
system.mem_ctrls1.rdQLenPdf::30                     0                       # What read queue length does an incoming req see
system.mem_ctrls1.rdQLenPdf::31                     0                       # What read queue length does an incoming req see
system.mem_ctrls1.wrQLenPdf::0                      2                       # What write queue length does an incoming req see
system.mem_ctrls1.wrQLenPdf::1                      2                       # What write queue length does an incoming req see
system.mem_ctrls1.wrQLenPdf::2                      2                       # What write queue length does an incoming req see
system.mem_ctrls1.wrQLenPdf::3                      2                       # What write queue length does an incoming req see
system.mem_ctrls1.wrQLenPdf::4                      2                       # What write queue length does an incoming req see
system.mem_ctrls1.wrQLenPdf::5                      2                       # What write queue length does an incoming req see
system.mem_ctrls1.wrQLenPdf::6                      2                       # What write queue length does an incoming req see
system.mem_ctrls1.wrQLenPdf::7                      2                       # What write queue length does an incoming req see
system.mem_ctrls1.wrQLenPdf::8                      2                       # What write queue length does an incoming req see
system.mem_ctrls1.wrQLenPdf::9                      2                       # What write queue length does an incoming req see
system.mem_ctrls1.wrQLenPdf::10                     2                       # What write queue length does an incoming req see
system.mem_ctrls1.wrQLenPdf::11                     2                       # What write queue length does an incoming req see
system.mem_ctrls1.wrQLenPdf::12                     2                       # What write queue length does an incoming req see
system.mem_ctrls1.wrQLenPdf::13                     2                       # What write queue length does an incoming req see
system.mem_ctrls1.wrQLenPdf::14                     2                       # What write queue length does an incoming req see
system.mem_ctrls1.wrQLenPdf::15                 12879                       # What write queue length does an incoming req see
system.mem_ctrls1.wrQLenPdf::16                 13107                       # What write queue length does an incoming req see
system.mem_ctrls1.wrQLenPdf::17                 15087                       # What write queue length does an incoming req see
system.mem_ctrls1.wrQLenPdf::18                 15395                       # What write queue length does an incoming req see
system.mem_ctrls1.wrQLenPdf::19                 15431                       # What write queue length does an incoming req see
system.mem_ctrls1.wrQLenPdf::20                 15417                       # What write queue length does an incoming req see
system.mem_ctrls1.wrQLenPdf::21                 15435                       # What write queue length does an incoming req see
system.mem_ctrls1.wrQLenPdf::22                 15496                       # What write queue length does an incoming req see
system.mem_ctrls1.wrQLenPdf::23                 15483                       # What write queue length does an incoming req see
system.mem_ctrls1.wrQLenPdf::24                 15474                       # What write queue length does an incoming req see
system.mem_ctrls1.wrQLenPdf::25                 15456                       # What write queue length does an incoming req see
system.mem_ctrls1.wrQLenPdf::26                 15454                       # What write queue length does an incoming req see
system.mem_ctrls1.wrQLenPdf::27                 15424                       # What write queue length does an incoming req see
system.mem_ctrls1.wrQLenPdf::28                 15409                       # What write queue length does an incoming req see
system.mem_ctrls1.wrQLenPdf::29                 15377                       # What write queue length does an incoming req see
system.mem_ctrls1.wrQLenPdf::30                 15413                       # What write queue length does an incoming req see
system.mem_ctrls1.wrQLenPdf::31                 15344                       # What write queue length does an incoming req see
system.mem_ctrls1.wrQLenPdf::32                 15339                       # What write queue length does an incoming req see
system.mem_ctrls1.wrQLenPdf::33                    73                       # What write queue length does an incoming req see
system.mem_ctrls1.wrQLenPdf::34                     8                       # What write queue length does an incoming req see
system.mem_ctrls1.wrQLenPdf::35                     1                       # What write queue length does an incoming req see
system.mem_ctrls1.wrQLenPdf::36                     0                       # What write queue length does an incoming req see
system.mem_ctrls1.wrQLenPdf::37                     0                       # What write queue length does an incoming req see
system.mem_ctrls1.wrQLenPdf::38                     0                       # What write queue length does an incoming req see
system.mem_ctrls1.wrQLenPdf::39                     0                       # What write queue length does an incoming req see
system.mem_ctrls1.wrQLenPdf::40                     0                       # What write queue length does an incoming req see
system.mem_ctrls1.wrQLenPdf::41                     0                       # What write queue length does an incoming req see
system.mem_ctrls1.wrQLenPdf::42                     0                       # What write queue length does an incoming req see
system.mem_ctrls1.wrQLenPdf::43                     0                       # What write queue length does an incoming req see
system.mem_ctrls1.wrQLenPdf::44                     0                       # What write queue length does an incoming req see
system.mem_ctrls1.wrQLenPdf::45                     0                       # What write queue length does an incoming req see
system.mem_ctrls1.wrQLenPdf::46                     0                       # What write queue length does an incoming req see
system.mem_ctrls1.wrQLenPdf::47                     0                       # What write queue length does an incoming req see
system.mem_ctrls1.wrQLenPdf::48                     0                       # What write queue length does an incoming req see
system.mem_ctrls1.wrQLenPdf::49                     0                       # What write queue length does an incoming req see
system.mem_ctrls1.wrQLenPdf::50                     0                       # What write queue length does an incoming req see
system.mem_ctrls1.wrQLenPdf::51                     0                       # What write queue length does an incoming req see
system.mem_ctrls1.wrQLenPdf::52                     0                       # What write queue length does an incoming req see
system.mem_ctrls1.wrQLenPdf::53                     0                       # What write queue length does an incoming req see
system.mem_ctrls1.wrQLenPdf::54                     0                       # What write queue length does an incoming req see
system.mem_ctrls1.wrQLenPdf::55                     0                       # What write queue length does an incoming req see
system.mem_ctrls1.wrQLenPdf::56                     0                       # What write queue length does an incoming req see
system.mem_ctrls1.wrQLenPdf::57                     0                       # What write queue length does an incoming req see
system.mem_ctrls1.wrQLenPdf::58                     0                       # What write queue length does an incoming req see
system.mem_ctrls1.wrQLenPdf::59                     0                       # What write queue length does an incoming req see
system.mem_ctrls1.wrQLenPdf::60                     0                       # What write queue length does an incoming req see
system.mem_ctrls1.wrQLenPdf::61                     0                       # What write queue length does an incoming req see
system.mem_ctrls1.wrQLenPdf::62                     0                       # What write queue length does an incoming req see
system.mem_ctrls1.wrQLenPdf::63                     0                       # What write queue length does an incoming req see
system.mem_ctrls1.bytesPerActivate::samples       447771                       # Bytes accessed per row activation
system.mem_ctrls1.bytesPerActivate::mean    96.490465                       # Bytes accessed per row activation
system.mem_ctrls1.bytesPerActivate::gmean    80.908553                       # Bytes accessed per row activation
system.mem_ctrls1.bytesPerActivate::stdev    95.363658                       # Bytes accessed per row activation
system.mem_ctrls1.bytesPerActivate::0-127       343894     76.80%     76.80% # Bytes accessed per row activation
system.mem_ctrls1.bytesPerActivate::128-255        80448     17.97%     94.77% # Bytes accessed per row activation
system.mem_ctrls1.bytesPerActivate::256-383        13802      3.08%     97.85% # Bytes accessed per row activation
system.mem_ctrls1.bytesPerActivate::384-511         4601      1.03%     98.88% # Bytes accessed per row activation
system.mem_ctrls1.bytesPerActivate::512-639         1438      0.32%     99.20% # Bytes accessed per row activation
system.mem_ctrls1.bytesPerActivate::640-767          892      0.20%     99.40% # Bytes accessed per row activation
system.mem_ctrls1.bytesPerActivate::768-895          657      0.15%     99.54% # Bytes accessed per row activation
system.mem_ctrls1.bytesPerActivate::896-1023          487      0.11%     99.65% # Bytes accessed per row activation
system.mem_ctrls1.bytesPerActivate::1024-1151         1552      0.35%    100.00% # Bytes accessed per row activation
system.mem_ctrls1.bytesPerActivate::total       447771                       # Bytes accessed per row activation
system.mem_ctrls1.rdPerTurnAround::samples        15329                       # Reads before turning the bus around for writes
system.mem_ctrls1.rdPerTurnAround::mean     26.259704                       # Reads before turning the bus around for writes
system.mem_ctrls1.rdPerTurnAround::stdev   232.395730                       # Reads before turning the bus around for writes
system.mem_ctrls1.rdPerTurnAround::0-1023        15328     99.99%     99.99% # Reads before turning the bus around for writes
system.mem_ctrls1.rdPerTurnAround::28672-29695            1      0.01%    100.00% # Reads before turning the bus around for writes
system.mem_ctrls1.rdPerTurnAround::total        15329                       # Reads before turning the bus around for writes
system.mem_ctrls1.wrPerTurnAround::samples        15329                       # Writes before turning the bus around for reads
system.mem_ctrls1.wrPerTurnAround::mean     17.777285                       # Writes before turning the bus around for reads
system.mem_ctrls1.wrPerTurnAround::gmean    17.757717                       # Writes before turning the bus around for reads
system.mem_ctrls1.wrPerTurnAround::stdev     0.821713                       # Writes before turning the bus around for reads
system.mem_ctrls1.wrPerTurnAround::16            2273     14.83%     14.83% # Writes before turning the bus around for reads
system.mem_ctrls1.wrPerTurnAround::17             148      0.97%     15.79% # Writes before turning the bus around for reads
system.mem_ctrls1.wrPerTurnAround::18           11822     77.12%     92.92% # Writes before turning the bus around for reads
system.mem_ctrls1.wrPerTurnAround::19             939      6.13%     99.04% # Writes before turning the bus around for reads
system.mem_ctrls1.wrPerTurnAround::20             116      0.76%     99.80% # Writes before turning the bus around for reads
system.mem_ctrls1.wrPerTurnAround::21              25      0.16%     99.96% # Writes before turning the bus around for reads
system.mem_ctrls1.wrPerTurnAround::22               3      0.02%     99.98% # Writes before turning the bus around for reads
system.mem_ctrls1.wrPerTurnAround::23               2      0.01%     99.99% # Writes before turning the bus around for reads
system.mem_ctrls1.wrPerTurnAround::30               1      0.01%    100.00% # Writes before turning the bus around for reads
system.mem_ctrls1.wrPerTurnAround::total        15329                       # Writes before turning the bus around for reads
system.mem_ctrls1.totQLat                 22025665565                       # Total ticks spent queuing
system.mem_ctrls1.totMemAccLat            29574040565                       # Total ticks spent from burst creation until serviced by the DRAM
system.mem_ctrls1.totBusLat                2012900000                       # Total ticks spent in databus transfers
system.mem_ctrls1.avgQLat                    54711.28                       # Average queueing delay per DRAM burst
system.mem_ctrls1.avgBusLat                   5000.00                       # Average bus latency per DRAM burst
system.mem_ctrls1.avgMemAccLat               73461.28                       # Average memory access latency per DRAM burst
system.mem_ctrls1.avgRdBW                       17.83                       # Average DRAM read bandwidth in MiByte/s
system.mem_ctrls1.avgWrBW                       12.07                       # Average achieved write bandwidth in MiByte/s
system.mem_ctrls1.avgRdBWSys                    17.87                       # Average system read bandwidth in MiByte/s
system.mem_ctrls1.avgWrBWSys                    12.07                       # Average system write bandwidth in MiByte/s
system.mem_ctrls1.peakBW                     12800.00                       # Theoretical peak bandwidth in MiByte/s
system.mem_ctrls1.busUtil                        0.23                       # Data bus utilization in percentage
system.mem_ctrls1.busUtilRead                    0.14                       # Data bus utilization in percentage for reads
system.mem_ctrls1.busUtilWrite                   0.09                       # Data bus utilization in percentage for writes
system.mem_ctrls1.avgRdQLen                      1.00                       # Average read queue length when enqueuing
system.mem_ctrls1.avgWrQLen                     23.25                       # Average write queue length when enqueuing
system.mem_ctrls1.readRowHits                  176075                       # Number of row buffer hits during reads
system.mem_ctrls1.writeRowHits                  51242                       # Number of row buffer hits during writes
system.mem_ctrls1.readRowHitRate                43.74                       # Row buffer hit rate for reads
system.mem_ctrls1.writeRowHitRate               18.80                       # Row buffer hit rate for writes
system.mem_ctrls1.avgGap                   2137104.63                       # Average gap between requests
system.mem_ctrls1.pageHitRate                   33.67                       # Row buffer hit rate, read and write combined
system.mem_ctrls1_0.actEnergy              1612447620                       # Energy for activate commands per rank (pJ)
system.mem_ctrls1_0.preEnergy               857036235                       # Energy for precharge commands per rank (pJ)
system.mem_ctrls1_0.readEnergy             1450912260                       # Energy for read commands per rank (pJ)
system.mem_ctrls1_0.writeEnergy             716559840                       # Energy for write commands per rank (pJ)
system.mem_ctrls1_0.refreshEnergy        56737418400.000015                       # Energy for refresh commands per rank (pJ)
system.mem_ctrls1_0.actBackEnergy         30112268940                       # Energy for active background per rank (pJ)
system.mem_ctrls1_0.preBackEnergy          2709879360                       # Energy for precharge background per rank (pJ)
system.mem_ctrls1_0.actPowerDownEnergy   147244772910                       # Energy for active power-down per rank (pJ)
system.mem_ctrls1_0.prePowerDownEnergy    77953506720                       # Energy for precharge power-down per rank (pJ)
system.mem_ctrls1_0.selfRefreshEnergy    212175150900                       # Energy for self refresh per rank (pJ)
system.mem_ctrls1_0.totalEnergy          531590447295                       # Total energy per rank (pJ)
system.mem_ctrls1_0.averagePower           367.872760                       # Core power per rank (mW)
system.mem_ctrls1_0.totalIdleTime        1371733895962                       # Total Idle time Per DRAM Rank
system.mem_ctrls1_0.memoryStateTime::IDLE   4771840516                       # Time in different power states
system.mem_ctrls1_0.memoryStateTime::REF  24101880000                       # Time in different power states
system.mem_ctrls1_0.memoryStateTime::SREF 845991504834                       # Time in different power states
system.mem_ctrls1_0.memoryStateTime::PRE_PDN 203003423533                       # Time in different power states
system.mem_ctrls1_0.memoryStateTime::ACT  44264247831                       # Time in different power states
system.mem_ctrls1_0.memoryStateTime::ACT_PDN 322905986451                       # Time in different power states
system.mem_ctrls1_1.actEnergy              1584637320                       # Energy for activate commands per rank (pJ)
system.mem_ctrls1_1.preEnergy               842254710                       # Energy for precharge commands per rank (pJ)
system.mem_ctrls1_1.readEnergy             1423508940                       # Energy for read commands per rank (pJ)
system.mem_ctrls1_1.writeEnergy             705931920                       # Energy for write commands per rank (pJ)
system.mem_ctrls1_1.refreshEnergy        57537065040.000015                       # Energy for refresh commands per rank (pJ)
system.mem_ctrls1_1.actBackEnergy         30132290760                       # Energy for active background per rank (pJ)
system.mem_ctrls1_1.preBackEnergy          2749271040                       # Energy for precharge background per rank (pJ)
system.mem_ctrls1_1.actPowerDownEnergy   149351137800                       # Energy for active power-down per rank (pJ)
system.mem_ctrls1_1.prePowerDownEnergy    79356211680                       # Energy for precharge power-down per rank (pJ)
system.mem_ctrls1_1.selfRefreshEnergy    210285309090                       # Energy for self refresh per rank (pJ)
system.mem_ctrls1_1.totalEnergy          533988226170                       # Total energy per rank (pJ)
system.mem_ctrls1_1.averagePower           369.532080                       # Core power per rank (mW)
system.mem_ctrls1_1.totalIdleTime        1371451439472                       # Total Idle time Per DRAM Rank
system.mem_ctrls1_1.memoryStateTime::IDLE   4846981087                       # Time in different power states
system.mem_ctrls1_1.memoryStateTime::REF  24441460000                       # Time in different power states
system.mem_ctrls1_1.memoryStateTime::SREF 837572654157                       # Time in different power states
system.mem_ctrls1_1.memoryStateTime::PRE_PDN 206657910156                       # Time in different power states
system.mem_ctrls1_1.memoryStateTime::ACT  43997142814                       # Time in different power states
system.mem_ctrls1_1.memoryStateTime::ACT_PDN 327522734951                       # Time in different power states
system.pwrStateResidencyTicks::UNDEFINED 191496348798165                       # Cumulative time (in ticks) in various power states
system.cpu.branchPred.lookups                       4                       # Number of BP lookups
system.cpu.branchPred.condPredicted                 2                       # Number of conditional branches predicted
system.cpu.branchPred.condIncorrect                 2                       # Number of conditional branches incorrect
system.cpu.branchPred.BTBLookups                    2                       # Number of BTB lookups
system.cpu.branchPred.BTBHits                       0                       # Number of BTB hits
system.cpu.branchPred.BTBCorrect                    0                       # Number of correct BTB predictions (this stat may not work properly.
system.cpu.branchPred.BTBHitPct              0.000000                       # BTB Hit Percentage
system.cpu.branchPred.usedRAS                       0                       # Number of times the RAS was used to get a target.
system.cpu.branchPred.RASInCorrect                  0                       # Number of incorrect RAS predictions.
system.cpu.branchPred.indirectLookups               0                       # Number of indirect predictor lookups.
system.cpu.branchPred.indirectHits                  0                       # Number of indirect target hits.
system.cpu.branchPred.indirectMisses                0                       # Number of indirect misses.
system.cpu.branchPredindirectMispredicted            0                       # Number of mispredicted indirect branches.
system.cpu_voltage_domain.voltage                   1                       # Voltage in Volts
system.cpu_clk_domain.clock                       333                       # Clock period in ticks
system.cpu.dtb.fetch_hits                           0                       # ITB hits
system.cpu.dtb.fetch_misses                         0                       # ITB misses
system.cpu.dtb.fetch_acv                            0                       # ITB acv
system.cpu.dtb.fetch_accesses                       0                       # ITB accesses
system.cpu.dtb.read_hits                            6                       # DTB read hits
system.cpu.dtb.read_misses                          0                       # DTB read misses
system.cpu.dtb.read_acv                             0                       # DTB read access violations
system.cpu.dtb.read_accesses                        6                       # DTB read accesses
system.cpu.dtb.write_hits                           1                       # DTB write hits
system.cpu.dtb.write_misses                         0                       # DTB write misses
system.cpu.dtb.write_acv                            0                       # DTB write access violations
system.cpu.dtb.write_accesses                       1                       # DTB write accesses
system.cpu.dtb.data_hits                            7                       # DTB hits
system.cpu.dtb.data_misses                          0                       # DTB misses
system.cpu.dtb.data_acv                             0                       # DTB access violations
system.cpu.dtb.data_accesses                        7                       # DTB accesses
system.cpu.itb.fetch_hits                           7                       # ITB hits
system.cpu.itb.fetch_misses                         0                       # ITB misses
system.cpu.itb.fetch_acv                            0                       # ITB acv
system.cpu.itb.fetch_accesses                       7                       # ITB accesses
system.cpu.itb.read_hits                            0                       # DTB read hits
system.cpu.itb.read_misses                          0                       # DTB read misses
system.cpu.itb.read_acv                             0                       # DTB read access violations
system.cpu.itb.read_accesses                        0                       # DTB read accesses
system.cpu.itb.write_hits                           0                       # DTB write hits
system.cpu.itb.write_misses                         0                       # DTB write misses
system.cpu.itb.write_acv                            0                       # DTB write access violations
system.cpu.itb.write_accesses                       0                       # DTB write accesses
system.cpu.itb.data_hits                            0                       # DTB hits
system.cpu.itb.data_misses                          0                       # DTB misses
system.cpu.itb.data_acv                             0                       # DTB access violations
system.cpu.itb.data_accesses                        0                       # DTB accesses
system.cpu.workload.num_syscalls                    0                       # Number of system calls
system.cpu.pwrStateResidencyTicks::ON    1445038883165                       # Cumulative time (in ticks) in various power states
system.cpu.numCycles                             1458                       # number of cpu cycles simulated
system.cpu.numWorkItemsStarted                      0                       # number of work items this cpu started
system.cpu.numWorkItemsCompleted                    0                       # number of work items this cpu completed
system.cpu.fetch.icacheStallCycles                 50                       # Number of cycles fetch is stalled on an Icache miss
system.cpu.fetch.Insts                             19                       # Number of instructions fetch has processed
system.cpu.fetch.Branches                           4                       # Number of branches that fetch encountered
system.cpu.fetch.Cycles                             4                       # Number of cycles fetch has run and was not squashing or blocked
system.cpu.fetch.SquashCycles                       7                       # Number of cycles fetch has spent squashing
system.cpu.fetch.PendingDrainCycles                 6                       # Number of cycles fetch has spent waiting on pipes to drain
system.cpu.fetch.CacheLines                         7                       # Number of cache lines fetched
system.cpu.fetch.IcacheSquashes                     4                       # Number of outstanding Icache misses that were squashed
system.cpu.fetch.rateDist::samples                 63                       # Number of instructions fetched each cycle (Total)
system.cpu.fetch.rateDist::mean              0.301587                       # Number of instructions fetched each cycle (Total)
system.cpu.fetch.rateDist::stdev             1.432738                       # Number of instructions fetched each cycle (Total)
system.cpu.fetch.rateDist::underflows               0      0.00%      0.00% # Number of instructions fetched each cycle (Total)
system.cpu.fetch.rateDist::0                       59     93.65%     93.65% # Number of instructions fetched each cycle (Total)
system.cpu.fetch.rateDist::1                        1      1.59%     95.24% # Number of instructions fetched each cycle (Total)
system.cpu.fetch.rateDist::2                        1      1.59%     96.83% # Number of instructions fetched each cycle (Total)
system.cpu.fetch.rateDist::3                        0      0.00%     96.83% # Number of instructions fetched each cycle (Total)
system.cpu.fetch.rateDist::4                        0      0.00%     96.83% # Number of instructions fetched each cycle (Total)
[...]
system.switch_cpus_1.iq.int_inst_queue_writes    562924754                       # Number of integer instruction queue writes
system.switch_cpus_1.iq.int_inst_queue_wakeup_accesses    317644096                       # Number of integer instruction queue wakeup accesses
system.switch_cpus_1.iq.fp_inst_queue_reads          222                       # Number of floating instruction queue reads
system.switch_cpus_1.iq.fp_inst_queue_writes          177                       # Number of floating instruction queue writes
system.switch_cpus_1.iq.fp_inst_queue_wakeup_accesses          101                       # Number of floating instruction queue wakeup accesses
system.switch_cpus_1.iq.int_alu_accesses    342862852                       # Number of integer alu accesses
system.switch_cpus_1.iq.fp_alu_accesses           111                       # Number of floating point alu accesses
system.switch_cpus_1.iew.lsq.thread0.forwLoads      3736445                       # Number of loads that had data forwarded from stores
system.switch_cpus_1.iew.lsq.thread0.invAddrLoads            0                       # Number of loads ignored due to an invalid address
system.switch_cpus_1.iew.lsq.thread0.squashedLoads     43311580                       # Number of loads squashed
system.switch_cpus_1.iew.lsq.thread0.ignoredResponses        25099                       # Number of memory responses ignored because the instruction is squashed
system.switch_cpus_1.iew.lsq.thread0.memOrderViolation        13878                       # Number of memory ordering violations
system.switch_cpus_1.iew.lsq.thread0.squashedStores     13474511                       # Number of stores squashed
system.switch_cpus_1.iew.lsq.thread0.invAddrSwpfs            0                       # Number of software prefetches ignored due to an invalid address
system.switch_cpus_1.iew.lsq.thread0.blockedLoads            0                       # Number of blocked loads due to partial load-store forwarding
system.switch_cpus_1.iew.lsq.thread0.rescheduledLoads            0                       # Number of loads that were rescheduled
system.switch_cpus_1.iew.lsq.thread0.cacheBlocked      6532468                       # Number of times an access to memory failed due to the cache being blocked
system.switch_cpus_1.iew.iewIdleCycles              0                       # Number of cycles IEW is idle
system.switch_cpus_1.iew.iewSquashCycles      3294703                       # Number of cycles IEW is squashing
system.switch_cpus_1.iew.iewBlockCycles      63475551                       # Number of cycles IEW is blocking
system.switch_cpus_1.iew.iewUnblockCycles     22539648                       # Number of cycles IEW is unblocking
system.switch_cpus_1.iew.iewDispatchedInsts    382151303                       # Number of instructions dispatched to IQ
system.switch_cpus_1.iew.iewDispSquashedInsts       968370                       # Number of squashed instructions skipped by dispatch
system.switch_cpus_1.iew.iewDispLoadInsts     92744328                       # Number of dispatched load instructions
system.switch_cpus_1.iew.iewDispStoreInsts     27539999                       # Number of dispatched store instructions
system.switch_cpus_1.iew.iewDispNonSpecInsts            0                       # Number of dispatched non-speculative instructions
system.switch_cpus_1.iew.iewIQFullEvents       235447                       # Number of times the IQ has become full, causing a stall
system.switch_cpus_1.iew.iewLSQFullEvents     22146248                       # Number of times the LSQ has become full, causing a stall
system.switch_cpus_1.iew.memOrderViolationEvents        13878                       # Number of memory order violations
system.switch_cpus_1.iew.predictedTakenIncorrect      1689847                       # Number of branches that were predicted taken incorrectly
system.switch_cpus_1.iew.predictedNotTakenIncorrect      1803371                       # Number of branches that were predicted not taken incorrectly
system.switch_cpus_1.iew.branchMispredicts      3493218                       # Number of branch mispredicts detected at execute
system.switch_cpus_1.iew.iewExecutedInsts    332056735                       # Number of executed instructions
system.switch_cpus_1.iew.iewExecLoadInsts     87435768                       # Number of load instructions executed
system.switch_cpus_1.iew.iewExecSquashedInsts      6245601                       # Number of squashed instructions skipped in execute
system.switch_cpus_1.iew.exec_swp                   0                       # number of swp insts executed
system.switch_cpus_1.iew.exec_nop              695266                       # number of nop insts executed
system.switch_cpus_1.iew.exec_refs          108423336                       # number of memory reference insts executed
system.switch_cpus_1.iew.exec_branches       38599192                       # Number of branches executed
system.switch_cpus_1.iew.exec_stores         20987568                       # Number of stores executed
system.switch_cpus_1.iew.exec_rate           1.192599                       # Inst execution rate
system.switch_cpus_1.iew.wb_sent            321211788                       # cumulative count of insts sent to commit
system.switch_cpus_1.iew.wb_count           317644197                       # cumulative count of insts written-back
system.switch_cpus_1.iew.wb_producers       206561608                       # num instructions producing a value
system.switch_cpus_1.iew.wb_consumers       271483720                       # num instructions consuming a value
system.switch_cpus_1.iew.wb_rate             1.140835                       # insts written-back per cycle
system.switch_cpus_1.iew.wb_fanout           0.760862                       # average fanout of values written-back
system.switch_cpus_1.commit.commitSquashedInsts    172463343                       # The number of squashed insts skipped by commit
system.switch_cpus_1.commit.branchMispredicts      2848763                       # The number of times a branch was mispredicted
system.switch_cpus_1.commit.committed_per_cycle::samples    254438910                       # Number of insts commited each cycle
system.switch_cpus_1.commit.committed_per_cycle::mean     0.788161                       # Number of insts commited each cycle
system.switch_cpus_1.commit.committed_per_cycle::stdev     2.010260                       # Number of insts commited each cycle
system.switch_cpus_1.commit.committed_per_cycle::underflows            0      0.00%      0.00% # Number of insts commited each cycle
system.switch_cpus_1.commit.committed_per_cycle::0    200592278     78.84%     78.84% # Number of insts commited each cycle
system.switch_cpus_1.commit.committed_per_cycle::1     17118725      6.73%     85.57% # Number of insts commited each cycle
system.switch_cpus_1.commit.committed_per_cycle::2     11041993      4.34%     89.90% # Number of insts commited each cycle
system.switch_cpus_1.commit.committed_per_cycle::3      4945545      1.94%     91.85% # Number of insts commited each cycle
system.switch_cpus_1.commit.committed_per_cycle::4      2524281      0.99%     92.84% # Number of insts commited each cycle
system.switch_cpus_1.commit.committed_per_cycle::5      1894371      0.74%     93.59% # Number of insts commited each cycle
system.switch_cpus_1.commit.committed_per_cycle::6      1397140      0.55%     94.13% # Number of insts commited each cycle
system.switch_cpus_1.commit.committed_per_cycle::7       848849      0.33%     94.47% # Number of insts commited each cycle
system.switch_cpus_1.commit.committed_per_cycle::8     14075728      5.53%    100.00% # Number of insts commited each cycle
system.switch_cpus_1.commit.committed_per_cycle::overflows            0      0.00%    100.00% # Number of insts commited each cycle
system.switch_cpus_1.commit.committed_per_cycle::min_value            0                       # Number of insts commited each cycle
system.switch_cpus_1.commit.committed_per_cycle::max_value            8                       # Number of insts commited each cycle
system.switch_cpus_1.commit.committed_per_cycle::total    254438910                       # Number of insts commited each cycle
system.switch_cpus_1.commit.committedInsts    200538932                       # Number of instructions committed
system.switch_cpus_1.commit.committedOps    200538932                       # Number of ops (including micro ops) committed
system.switch_cpus_1.commit.swp_count               0                       # Number of s/w prefetches committed
system.switch_cpus_1.commit.refs             63498195                       # Number of memory references committed
system.switch_cpus_1.commit.loads            49432720                       # Number of loads committed
system.switch_cpus_1.commit.membars                 0                       # Number of memory barriers committed
system.switch_cpus_1.commit.branches         24329166                       # Number of branches committed
system.switch_cpus_1.commit.fp_insts               91                       # Number of committed floating point instructions.
system.switch_cpus_1.commit.int_insts       197997126                       # Number of committed integer instructions.
system.switch_cpus_1.commit.function_calls       749984                       # Number of function calls committed.
system.switch_cpus_1.commit.op_class_0::No_OpClass       538941      0.27%      0.27% # Class of committed instruction
system.switch_cpus_1.commit.op_class_0::IntAlu    136501742     68.07%     68.34% # Class of committed instruction
system.switch_cpus_1.commit.op_class_0::IntMult            0      0.00%     68.34% # Class of committed instruction
system.switch_cpus_1.commit.op_class_0::IntDiv            0      0.00%     68.34% # Class of committed instruction
system.switch_cpus_1.commit.op_class_0::FloatAdd           30      0.00%     68.34% # Class of committed instruction
system.switch_cpus_1.commit.op_class_0::FloatCmp            0      0.00%     68.34% # Class of committed instruction
system.switch_cpus_1.commit.op_class_0::FloatCvt           18      0.00%     68.34% # Class of committed instruction
system.switch_cpus_1.commit.op_class_0::FloatMult            0      0.00%     68.34% # Class of committed instruction
system.switch_cpus_1.commit.op_class_0::FloatMultAcc            0      0.00%     68.34% # Class of committed instruction
system.switch_cpus_1.commit.op_class_0::FloatDiv            6      0.00%     68.34% # Class of committed instruction
system.switch_cpus_1.commit.op_class_0::FloatMisc            0      0.00%     68.34% # Class of committed instruction
system.switch_cpus_1.commit.op_class_0::FloatSqrt            0      0.00%     68.34% # Class of committed instruction
system.switch_cpus_1.commit.op_class_0::SimdAdd            0      0.00%     68.34% # Class of committed instruction
system.switch_cpus_1.commit.op_class_0::SimdAddAcc            0      0.00%     68.34% # Class of committed instruction
system.switch_cpus_1.commit.op_class_0::SimdAlu            0      0.00%     68.34% # Class of committed instruction
system.switch_cpus_1.commit.op_class_0::SimdCmp            0      0.00%     68.34% # Class of committed instruction
system.switch_cpus_1.commit.op_class_0::SimdCvt            0      0.00%     68.34% # Class of committed instruction
system.switch_cpus_1.commit.op_class_0::SimdMisc            0      0.00%     68.34% # Class of committed instruction
system.switch_cpus_1.commit.op_class_0::SimdMult            0      0.00%     68.34% # Class of committed instruction
system.switch_cpus_1.commit.op_class_0::SimdMultAcc            0      0.00%     68.34% # Class of committed instruction
system.switch_cpus_1.commit.op_class_0::SimdShift            0      0.00%     68.34% # Class of committed instruction
system.switch_cpus_1.commit.op_class_0::SimdShiftAcc            0      0.00%     68.34% # Class of committed instruction
system.switch_cpus_1.commit.op_class_0::SimdSqrt            0      0.00%     68.34% # Class of committed instruction
system.switch_cpus_1.commit.op_class_0::SimdFloatAdd            0      0.00%     68.34% # Class of committed instruction
system.switch_cpus_1.commit.op_class_0::SimdFloatAlu            0      0.00%     68.34% # Class of committed instruction
system.switch_cpus_1.commit.op_class_0::SimdFloatCmp            0      0.00%     68.34% # Class of committed instruction
system.switch_cpus_1.commit.op_class_0::SimdFloatCvt            0      0.00%     68.34% # Class of committed instruction
system.switch_cpus_1.commit.op_class_0::SimdFloatDiv            0      0.00%     68.34% # Class of committed instruction
system.switch_cpus_1.commit.op_class_0::SimdFloatMisc            0      0.00%     68.34% # Class of committed instruction
system.switch_cpus_1.commit.op_class_0::SimdFloatMult            0      0.00%     68.34% # Class of committed instruction
system.switch_cpus_1.commit.op_class_0::SimdFloatMultAcc            0      0.00%     68.34% # Class of committed instruction
system.switch_cpus_1.commit.op_class_0::SimdFloatSqrt            0      0.00%     68.34% # Class of committed instruction
system.switch_cpus_1.commit.op_class_0::MemRead     49432701     24.65%     92.99% # Class of committed instruction
system.switch_cpus_1.commit.op_class_0::MemWrite     14065457      7.01%    100.00% # Class of committed instruction
system.switch_cpus_1.commit.op_class_0::FloatMemRead           19      0.00%    100.00% # Class of committed instruction
system.switch_cpus_1.commit.op_class_0::FloatMemWrite           18      0.00%    100.00% # Class of committed instruction
system.switch_cpus_1.commit.op_class_0::IprAccess            0      0.00%    100.00% # Class of committed instruction
system.switch_cpus_1.commit.op_class_0::InstPrefetch            0      0.00%    100.00% # Class of committed instruction
system.switch_cpus_1.commit.op_class_0::total    200538932                       # Class of committed instruction
system.switch_cpus_1.commit.bw_lim_events     14075728                       # number cycles where commit BW limit reached
system.switch_cpus_1.rob.rob_reads          607709833                       # The number of ROB reads
system.switch_cpus_1.rob.rob_writes         769995097                       # The number of ROB writes
system.switch_cpus_1.timesIdled                   340                       # Number of times that the entire CPU went into an idle state and unscheduled itself
system.switch_cpus_1.idleCycles                 31583                       # Total number of cycles that the CPU has spent unscheduled due to idling
system.switch_cpus_1.committedInsts         200000003                       # Number of Instructions Simulated
system.switch_cpus_1.committedOps           200000003                       # Number of Ops (including micro ops) Simulated
system.switch_cpus_1.cpi                     1.392156                       # CPI: Cycles Per Instruction
system.switch_cpus_1.cpi_total               1.392156                       # CPI: Total CPI of All Threads
system.switch_cpus_1.ipc                     0.718310                       # IPC: Instructions Per Cycle
system.switch_cpus_1.ipc_total               0.718310                       # IPC: Total IPC of All Threads
system.switch_cpus_1.int_regfile_reads      451846781                       # number of integer regfile reads
system.switch_cpus_1.int_regfile_writes     261582059                       # number of integer regfile writes
system.switch_cpus_1.fp_regfile_reads              63                       # number of floating regfile reads
system.switch_cpus_1.fp_regfile_writes            103                       # number of floating regfile writes
system.switch_cpus_1.misc_regfile_reads            12                       # number of misc regfile reads
system.switch_cpus_1.misc_regfile_writes            6                       # number of misc regfile writes
system.tol3bus.snoop_filter.tot_requests     15148895                       # Total number of requests made to the snoop filter.
system.tol3bus.snoop_filter.hit_single_requests      7572303                       # Number of requests hitting in the snoop filter with a single holder of the requested data.
system.tol3bus.snoop_filter.hit_multi_requests            0                       # Number of requests hitting in the snoop filter with multiple (>1) holders of the requested data.
system.tol3bus.snoop_filter.tot_snoops           1294                       # Total number of snoops made to the snoop filter.
system.tol3bus.snoop_filter.hit_single_snoops         1294                       # Number of snoops hitting in the snoop filter with a single holder of the requested data.
system.tol3bus.snoop_filter.hit_multi_snoops            0                       # Number of snoops hitting in the snoop filter with multiple (>1) holders of the requested data.
system.tol3bus.pwrStateResidencyTicks::UNDEFINED 191496348798165                       # Cumulative time (in ticks) in various power states
system.tol3bus.trans_dist::ReadResp           5401187                       # Transaction distribution
system.tol3bus.trans_dist::WritebackDirty      4518269                       # Transaction distribution
system.tol3bus.trans_dist::CleanEvict         3795188                       # Transaction distribution
system.tol3bus.trans_dist::UpgradeReq               5                       # Transaction distribution
system.tol3bus.trans_dist::UpgradeResp              5                       # Transaction distribution
system.tol3bus.trans_dist::ReadExReq          2175405                       # Transaction distribution
system.tol3bus.trans_dist::ReadExResp         2175405                       # Transaction distribution
system.tol3bus.trans_dist::ReadSharedReq      5401187                       # Transaction distribution
system.tol3bus.pkt_count_system.cpu.l2.mem_side::system.l3.cpu_side     22725492                       # Packet count per connected master and slave (bytes)
system.tol3bus.pkt_size_system.cpu.l2.mem_side::system.l3.cpu_side    739189632                       # Cumulative packet size per connected master and slave (bytes)
system.tol3bus.snoops                          741159                       # Total snoops (count)
system.tol3bus.snoopTraffic                  34881472                       # Total snoop traffic (bytes)
system.tol3bus.snoop_fanout::samples          8317756                       # Request fanout histogram
system.tol3bus.snoop_fanout::mean            0.000156                       # Request fanout histogram
system.tol3bus.snoop_fanout::stdev           0.012472                       # Request fanout histogram
system.tol3bus.snoop_fanout::underflows             0      0.00%      0.00% # Request fanout histogram
system.tol3bus.snoop_fanout::0                8316462     99.98%     99.98% # Request fanout histogram
system.tol3bus.snoop_fanout::1                   1294      0.02%    100.00% # Request fanout histogram
system.tol3bus.snoop_fanout::overflows              0      0.00%    100.00% # Request fanout histogram
system.tol3bus.snoop_fanout::min_value              0                       # Request fanout histogram
system.tol3bus.snoop_fanout::max_value              1                       # Request fanout histogram
system.tol3bus.snoop_fanout::total            8317756                       # Request fanout histogram
system.tol3bus.reqLayer0.occupancy         6367672953                       # Layer occupancy (ticks)
system.tol3bus.reqLayer0.utilization              0.4                       # Layer utilization (%)
system.tol3bus.respLayer0.occupancy        5046011937                       # Layer occupancy (ticks)
system.tol3bus.respLayer0.utilization             0.3                       # Layer utilization (%)

---------- End Simulation Statistics   ----------
