
---------- Begin Simulation Statistics ----------
sim_seconds                                  2.951479                       # Number of seconds simulated
sim_ticks                                2951478815085                       # Number of ticks simulated
final_tick                               72981451396431                       # Number of ticks from beginning of simulation (restored from checkpoints and never reset)
sim_freq                                 1000000000000                       # Frequency of simulated ticks
host_inst_rate                                 257595                       # Simulator instruction rate (inst/s)
host_op_rate                                   257595                       # Simulator op (including micro ops) rate (op/s)
host_tick_rate                              633571301                       # Simulator tick rate (ticks/s)
host_mem_usage                                2504192                       # Number of bytes of host memory used
host_seconds                                  4658.48                       # Real time elapsed on the host
sim_insts                                  1200000011                       # Number of instructions simulated
sim_ops                                    1200000011                       # Number of ops (including micro ops) simulated
system.voltage_domain.voltage                       1                       # Voltage in Volts
system.clk_domain.clock                          1000                       # Clock period in ticks
system.mem_ctrls0.pwrStateResidencyTicks::UNDEFINED 72981451396431                       # Cumulative time (in ticks) in various power states
system.mem_ctrls0.bytes_read::cpu.inst             64                       # Number of bytes read from this memory
system.mem_ctrls0.bytes_read::cpu.data            128                       # Number of bytes read from this memory
system.mem_ctrls0.bytes_read::switch_cpus.inst       130048                       # Number of bytes read from this memory
system.mem_ctrls0.bytes_read::switch_cpus.data    413364736                       # Number of bytes read from this memory
system.mem_ctrls0.bytes_read::switch_cpus_1.inst        37248                       # Number of bytes read from this memory
system.mem_ctrls0.bytes_read::switch_cpus_1.data     87878592                       # Number of bytes read from this memory
system.mem_ctrls0.bytes_read::total         501410816                       # Number of bytes read from this memory
system.mem_ctrls0.bytes_inst_read::cpu.inst           64                       # Number of instructions bytes read from this memory
system.mem_ctrls0.bytes_inst_read::switch_cpus.inst       130048                       # Number of instructions bytes read from this memory
system.mem_ctrls0.bytes_inst_read::switch_cpus_1.inst        37248                       # Number of instructions bytes read from this memory
system.mem_ctrls0.bytes_inst_read::total       167360                       # Number of instructions bytes read from this memory
system.mem_ctrls0.bytes_written::writebacks    174280704                       # Number of bytes written to this memory
system.mem_ctrls0.bytes_written::total      174280704                       # Number of bytes written to this memory
system.mem_ctrls0.num_reads::cpu.inst               1                       # Number of read requests responded to by this memory
system.mem_ctrls0.num_reads::cpu.data               2                       # Number of read requests responded to by this memory
system.mem_ctrls0.num_reads::switch_cpus.inst         2032                       # Number of read requests responded to by this memory
system.mem_ctrls0.num_reads::switch_cpus.data      6458824                       # Number of read requests responded to by this memory
system.mem_ctrls0.num_reads::switch_cpus_1.inst          582                       # Number of read requests responded to by this memory
system.mem_ctrls0.num_reads::switch_cpus_1.data      1373103                       # Number of read requests responded to by this memory
system.mem_ctrls0.num_reads::total            7834544                       # Number of read requests responded to by this memory
system.mem_ctrls0.num_writes::writebacks      2723136                       # Number of write requests responded to by this memory
system.mem_ctrls0.num_writes::total           2723136                       # Number of write requests responded to by this memory
system.mem_ctrls0.bw_read::cpu.inst                22                       # Total read bandwidth from this memory (bytes/s)
system.mem_ctrls0.bw_read::cpu.data                43                       # Total read bandwidth from this memory (bytes/s)
system.mem_ctrls0.bw_read::switch_cpus.inst        44062                       # Total read bandwidth from this memory (bytes/s)
system.mem_ctrls0.bw_read::switch_cpus.data    140053431                       # Total read bandwidth from this memory (bytes/s)
system.mem_ctrls0.bw_read::switch_cpus_1.inst        12620                       # Total read bandwidth from this memory (bytes/s)
system.mem_ctrls0.bw_read::switch_cpus_1.data     29774428                       # Total read bandwidth from this memory (bytes/s)
system.mem_ctrls0.bw_read::total            169884606                       # Total read bandwidth from this memory (bytes/s)
system.mem_ctrls0.bw_inst_read::cpu.inst           22                       # Instruction read bandwidth from this memory (bytes/s)
system.mem_ctrls0.bw_inst_read::switch_cpus.inst        44062                       # Instruction read bandwidth from this memory (bytes/s)
system.mem_ctrls0.bw_inst_read::switch_cpus_1.inst        12620                       # Instruction read bandwidth from this memory (bytes/s)
system.mem_ctrls0.bw_inst_read::total           56704                       # Instruction read bandwidth from this memory (bytes/s)
system.mem_ctrls0.bw_write::writebacks       59048604                       # Write bandwidth from this memory (bytes/s)
system.mem_ctrls0.bw_write::total            59048604                       # Write bandwidth from this memory (bytes/s)
system.mem_ctrls0.bw_total::writebacks       59048604                       # Total bandwidth to/from this memory (bytes/s)
system.mem_ctrls0.bw_total::cpu.inst               22                       # Total bandwidth to/from this memory (bytes/s)
system.mem_ctrls0.bw_total::cpu.data               43                       # Total bandwidth to/from this memory (bytes/s)
system.mem_ctrls0.bw_total::switch_cpus.inst        44062                       # Total bandwidth to/from this memory (bytes/s)
system.mem_ctrls0.bw_total::switch_cpus.data    140053431                       # Total bandwidth to/from this memory (bytes/s)
system.mem_ctrls0.bw_total::switch_cpus_1.inst        12620                       # Total bandwidth to/from this memory (bytes/s)
system.mem_ctrls0.bw_total::switch_cpus_1.data     29774428                       # Total bandwidth to/from this memory (bytes/s)
system.mem_ctrls0.bw_total::total           228933210                       # Total bandwidth to/from this memory (bytes/s)
system.mem_ctrls0.readReqs                    7834544                       # Number of read requests accepted
system.mem_ctrls0.writeReqs                   2723136                       # Number of write requests accepted
system.mem_ctrls0.readBursts                  7834544                       # Number of DRAM read bursts, including those serviced by the write queue
system.mem_ctrls0.writeBursts                 2723136                       # Number of DRAM write bursts, including those merged in the write queue
system.mem_ctrls0.bytesReadDRAM             500886784                       # Total number of bytes read from DRAM
system.mem_ctrls0.bytesReadWrQ                 524032                       # Total number of bytes read from write queue
system.mem_ctrls0.bytesWritten              174279296                       # Total number of bytes written to DRAM
system.mem_ctrls0.bytesReadSys              501410816                       # Total read bytes from the system interface side
system.mem_ctrls0.bytesWrittenSys           174280704                       # Total written bytes from the system interface side
system.mem_ctrls0.servicedByWrQ                  8188                       # Number of DRAM read bursts serviced by the write queue
system.mem_ctrls0.mergedWrBursts                    0                       # Number of DRAM write bursts merged with an existing one
system.mem_ctrls0.neitherReadNorWriteReqs            0                       # Number of requests that are neither read nor write
system.mem_ctrls0.perBankRdBursts::0           515000                       # Per bank write bursts
system.mem_ctrls0.perBankRdBursts::1           503958                       # Per bank write bursts
system.mem_ctrls0.perBankRdBursts::2           493459                       # Per bank write bursts
system.mem_ctrls0.perBankRdBursts::3           490388                       # Per bank write bursts
system.mem_ctrls0.perBankRdBursts::4           483705                       # Per bank write bursts
system.mem_ctrls0.perBankRdBursts::5           497334                       # Per bank write bursts
system.mem_ctrls0.perBankRdBursts::6           476412                       # Per bank write bursts
system.mem_ctrls0.perBankRdBursts::7           494648                       # Per bank write bursts
system.mem_ctrls0.perBankRdBursts::8           494063                       # Per bank write bursts
system.mem_ctrls0.perBankRdBursts::9           489226                       # Per bank write bursts
system.mem_ctrls0.perBankRdBursts::10          479991                       # Per bank write bursts
system.mem_ctrls0.perBankRdBursts::11          482949                       # Per bank write bursts
system.mem_ctrls0.perBankRdBursts::12          472069                       # Per bank write bursts
system.mem_ctrls0.perBankRdBursts::13          474357                       # Per bank write bursts
system.mem_ctrls0.perBankRdBursts::14          479346                       # Per bank write bursts
system.mem_ctrls0.perBankRdBursts::15          499451                       # Per bank write bursts
system.mem_ctrls0.perBankWrBursts::0           180960                       # Per bank write bursts
system.mem_ctrls0.perBankWrBursts::1           169936                       # Per bank write bursts
system.mem_ctrls0.perBankWrBursts::2           174454                       # Per bank write bursts
system.mem_ctrls0.perBankWrBursts::3           171747                       # Per bank write bursts
system.mem_ctrls0.perBankWrBursts::4           169469                       # Per bank write bursts
system.mem_ctrls0.perBankWrBursts::5           172547                       # Per bank write bursts
system.mem_ctrls0.perBankWrBursts::6           166329                       # Per bank write bursts
system.mem_ctrls0.perBankWrBursts::7           167488                       # Per bank write bursts
system.mem_ctrls0.perBankWrBursts::8           168229                       # Per bank write bursts
system.mem_ctrls0.perBankWrBursts::9           164510                       # Per bank write bursts
system.mem_ctrls0.perBankWrBursts::10          165113                       # Per bank write bursts
system.mem_ctrls0.perBankWrBursts::11          162679                       # Per bank write bursts
system.mem_ctrls0.perBankWrBursts::12          162808                       # Per bank write bursts
system.mem_ctrls0.perBankWrBursts::13          170452                       # Per bank write bursts
system.mem_ctrls0.perBankWrBursts::14          177302                       # Per bank write bursts
system.mem_ctrls0.perBankWrBursts::15          179091                       # Per bank write bursts
system.mem_ctrls0.numRdRetry                        0                       # Number of times read queue was full causing retry
system.mem_ctrls0.numWrRetry                        0                       # Number of times write queue was full causing retry
system.mem_ctrls0.totGap                 2951478222012                       # Total gap between requests
system.mem_ctrls0.readPktSize::0                    0                       # Read request sizes (log2)
system.mem_ctrls0.readPktSize::1                    0                       # Read request sizes (log2)
system.mem_ctrls0.readPktSize::2                    0                       # Read request sizes (log2)
system.mem_ctrls0.readPktSize::3                    0                       # Read request sizes (log2)
system.mem_ctrls0.readPktSize::4                    0                       # Read request sizes (log2)
system.mem_ctrls0.readPktSize::5                    0                       # Read request sizes (log2)
system.mem_ctrls0.readPktSize::6              7834544                       # Read request sizes (log2)
system.mem_ctrls0.writePktSize::0                   0                       # Write request sizes (log2)
system.mem_ctrls0.writePktSize::1                   0                       # Write request sizes (log2)
system.mem_ctrls0.writePktSize::2                   0                       # Write request sizes (log2)
system.mem_ctrls0.writePktSize::3                   0                       # Write request sizes (log2)
system.mem_ctrls0.writePktSize::4                   0                       # Write request sizes (log2)
system.mem_ctrls0.writePktSize::5                   0                       # Write request sizes (log2)
system.mem_ctrls0.writePktSize::6             2723136                       # Write request sizes (log2)
system.mem_ctrls0.rdQLenPdf::0                7442634                       # What read queue length does an incoming req see
system.mem_ctrls0.rdQLenPdf::1                 329916                       # What read queue length does an incoming req see
system.mem_ctrls0.rdQLenPdf::2                  49212                       # What read queue length does an incoming req see
system.mem_ctrls0.rdQLenPdf::3                   4593                       # What read queue length does an incoming req see
system.mem_ctrls0.rdQLenPdf::4                      1                       # What read queue length does an incoming req see
system.mem_ctrls0.rdQLenPdf::5                      0                       # What read queue length does an incoming req see
system.mem_ctrls0.rdQLenPdf::6                      0                       # What read queue length does an incoming req see
system.mem_ctrls0.rdQLenPdf::7                      0                       # What read queue length does an incoming req see
system.mem_ctrls0.rdQLenPdf::8                      0                       # What read queue length does an incoming req see
system.mem_ctrls0.rdQLenPdf::9                      0                       # What read queue length does an incoming req see
system.mem_ctrls0.rdQLenPdf::10                     0                       # What read queue length does an incoming req see
system.mem_ctrls0.rdQLenPdf::11                     0                       # What read queue length does an incoming req see
system.mem_ctrls0.rdQLenPdf::12                     0                       # What read queue length does an incoming req see
system.mem_ctrls0.rdQLenPdf::13                     0                       # What read queue length does an incoming req see
system.mem_ctrls0.rdQLenPdf::14                     0                       # What read queue length does an incoming req see
system.mem_ctrls0.rdQLenPdf::15                     0                       # What read queue length does an incoming req see
system.mem_ctrls0.rdQLenPdf::16                     0                       # What read queue length does an incoming req see
system.mem_ctrls0.rdQLenPdf::17                     0                       # What read queue length does an incoming req see
system.mem_ctrls0.rdQLenPdf::18                     0                       # What read queue length does an incoming req see
system.mem_ctrls0.rdQLenPdf::19                     0                       # What read queue length does an incoming req see
system.mem_ctrls0.rdQLenPdf::20                     0                       # What read queue length does an incoming req see
system.mem_ctrls0.rdQLenPdf::21                     0                       # What read queue length does an incoming req see
system.mem_ctrls0.rdQLenPdf::22                     0                       # What read queue length does an incoming req see
system.mem_ctrls0.rdQLenPdf::23                     0                       # What read queue length does an incoming req see
system.mem_ctrls0.rdQLenPdf::24                     0                       # What read queue length does an incoming req see
system.mem_ctrls0.rdQLenPdf::25                     0                       # What read queue length does an incoming req see
system.mem_ctrls0.rdQLenPdf::26                     0                       # What read queue length does an incoming req see
system.mem_ctrls0.rdQLenPdf::27                     0                       # What read queue length does an incoming req see
system.mem_ctrls0.rdQLenPdf::28                     0                       # What read queue length does an incoming req see
system.mem_ctrls0.rdQLenPdf::29                     0                       # What read queue length does an incoming req see
system.mem_ctrls0.rdQLenPdf::30                     0                       # What read queue length does an incoming req see
system.mem_ctrls0.rdQLenPdf::31                     0                       # What read queue length does an incoming req see
system.mem_ctrls0.wrQLenPdf::0                      2                       # What write queue length does an incoming req see
system.mem_ctrls0.wrQLenPdf::1                      2                       # What write queue length does an incoming req see
system.mem_ctrls0.wrQLenPdf::2                      2                       # What write queue length does an incoming req see
system.mem_ctrls0.wrQLenPdf::3                      2                       # What write queue length does an incoming req see
system.mem_ctrls0.wrQLenPdf::4                      2                       # What write queue length does an incoming req see
system.mem_ctrls0.wrQLenPdf::5                      2                       # What write queue length does an incoming req see
system.mem_ctrls0.wrQLenPdf::6                      2                       # What write queue length does an incoming req see
system.mem_ctrls0.wrQLenPdf::7                      2                       # What write queue length does an incoming req see
system.mem_ctrls0.wrQLenPdf::8                      2                       # What write queue length does an incoming req see
system.mem_ctrls0.wrQLenPdf::9                      2                       # What write queue length does an incoming req see
system.mem_ctrls0.wrQLenPdf::10                     2                       # What write queue length does an incoming req see
system.mem_ctrls0.wrQLenPdf::11                     2                       # What write queue length does an incoming req see
system.mem_ctrls0.wrQLenPdf::12                     2                       # What write queue length does an incoming req see
system.mem_ctrls0.wrQLenPdf::13                     2                       # What write queue length does an incoming req see
system.mem_ctrls0.wrQLenPdf::14                     2                       # What write queue length does an incoming req see
system.mem_ctrls0.wrQLenPdf::15                100978                       # What write queue length does an incoming req see
system.mem_ctrls0.wrQLenPdf::16                105456                       # What write queue length does an incoming req see
system.mem_ctrls0.wrQLenPdf::17                151440                       # What write queue length does an incoming req see
system.mem_ctrls0.wrQLenPdf::18                156685                       # What write queue length does an incoming req see
system.mem_ctrls0.wrQLenPdf::19                157499                       # What write queue length does an incoming req see
system.mem_ctrls0.wrQLenPdf::20                157572                       # What write queue length does an incoming req see
system.mem_ctrls0.wrQLenPdf::21                157594                       # What write queue length does an incoming req see
system.mem_ctrls0.wrQLenPdf::22                157828                       # What write queue length does an incoming req see
system.mem_ctrls0.wrQLenPdf::23                157867                       # What write queue length does an incoming req see
system.mem_ctrls0.wrQLenPdf::24                158109                       # What write queue length does an incoming req see
system.mem_ctrls0.wrQLenPdf::25                159405                       # What write queue length does an incoming req see
system.mem_ctrls0.wrQLenPdf::26                158259                       # What write queue length does an incoming req see
system.mem_ctrls0.wrQLenPdf::27                157601                       # What write queue length does an incoming req see
system.mem_ctrls0.wrQLenPdf::28                157678                       # What write queue length does an incoming req see
system.mem_ctrls0.wrQLenPdf::29                157623                       # What write queue length does an incoming req see
system.mem_ctrls0.wrQLenPdf::30                157812                       # What write queue length does an incoming req see
system.mem_ctrls0.wrQLenPdf::31                156784                       # What write queue length does an incoming req see
system.mem_ctrls0.wrQLenPdf::32                156702                       # What write queue length does an incoming req see
system.mem_ctrls0.wrQLenPdf::33                   155                       # What write queue length does an incoming req see
system.mem_ctrls0.wrQLenPdf::34                    42                       # What write queue length does an incoming req see
system.mem_ctrls0.wrQLenPdf::35                    14                       # What write queue length does an incoming req see
system.mem_ctrls0.wrQLenPdf::36                     2                       # What write queue length does an incoming req see
system.mem_ctrls0.wrQLenPdf::37                     1                       # What write queue length does an incoming req see
system.mem_ctrls0.wrQLenPdf::38                     0                       # What write queue length does an incoming req see
system.mem_ctrls0.wrQLenPdf::39                     0                       # What write queue length does an incoming req see
system.mem_ctrls0.wrQLenPdf::40                     0                       # What write queue length does an incoming req see
system.mem_ctrls0.wrQLenPdf::41                     0                       # What write queue length does an incoming req see
system.mem_ctrls0.wrQLenPdf::42                     0                       # What write queue length does an incoming req see
system.mem_ctrls0.wrQLenPdf::43                     0                       # What write queue length does an incoming req see
system.mem_ctrls0.wrQLenPdf::44                     0                       # What write queue length does an incoming req see
system.mem_ctrls0.wrQLenPdf::45                     0                       # What write queue length does an incoming req see
system.mem_ctrls0.wrQLenPdf::46                     0                       # What write queue length does an incoming req see
system.mem_ctrls0.wrQLenPdf::47                     0                       # What write queue length does an incoming req see
system.mem_ctrls0.wrQLenPdf::48                     0                       # What write queue length does an incoming req see
system.mem_ctrls0.wrQLenPdf::49                     0                       # What write queue length does an incoming req see
system.mem_ctrls0.wrQLenPdf::50                     0                       # What write queue length does an incoming req see
system.mem_ctrls0.wrQLenPdf::51                     0                       # What write queue length does an incoming req see
system.mem_ctrls0.wrQLenPdf::52                     0                       # What write queue length does an incoming req see
system.mem_ctrls0.wrQLenPdf::53                     0                       # What write queue length does an incoming req see
system.mem_ctrls0.wrQLenPdf::54                     0                       # What write queue length does an incoming req see
system.mem_ctrls0.wrQLenPdf::55                     0                       # What write queue length does an incoming req see
system.mem_ctrls0.wrQLenPdf::56                     0                       # What write queue length does an incoming req see
system.mem_ctrls0.wrQLenPdf::57                     0                       # What write queue length does an incoming req see
system.mem_ctrls0.wrQLenPdf::58                     0                       # What write queue length does an incoming req see
system.mem_ctrls0.wrQLenPdf::59                     0                       # What write queue length does an incoming req see
system.mem_ctrls0.wrQLenPdf::60                     0                       # What write queue length does an incoming req see
system.mem_ctrls0.wrQLenPdf::61                     0                       # What write queue length does an incoming req see
system.mem_ctrls0.wrQLenPdf::62                     0                       # What write queue length does an incoming req see
system.mem_ctrls0.wrQLenPdf::63                     0                       # What write queue length does an incoming req see
system.mem_ctrls0.bytesPerActivate::samples      4804724                       # Bytes accessed per row activation
system.mem_ctrls0.bytesPerActivate::mean   140.521237                       # Bytes accessed per row activation
system.mem_ctrls0.bytesPerActivate::gmean    98.047265                       # Bytes accessed per row activation
system.mem_ctrls0.bytesPerActivate::stdev   179.359699                       # Bytes accessed per row activation
system.mem_ctrls0.bytesPerActivate::0-127      3150209     65.56%     65.56% # Bytes accessed per row activation
system.mem_ctrls0.bytesPerActivate::128-255      1033336     21.51%     87.07% # Bytes accessed per row activation
system.mem_ctrls0.bytesPerActivate::256-383       241701      5.03%     92.10% # Bytes accessed per row activation
system.mem_ctrls0.bytesPerActivate::384-511       113538      2.36%     94.47% # Bytes accessed per row activation
system.mem_ctrls0.bytesPerActivate::512-639        62791      1.31%     95.77% # Bytes accessed per row activation
system.mem_ctrls0.bytesPerActivate::640-767        48899      1.02%     96.79% # Bytes accessed per row activation
system.mem_ctrls0.bytesPerActivate::768-895        46558      0.97%     97.76% # Bytes accessed per row activation
system.mem_ctrls0.bytesPerActivate::896-1023        33482      0.70%     98.46% # Bytes accessed per row activation
system.mem_ctrls0.bytesPerActivate::1024-1151        74210      1.54%    100.00% # Bytes accessed per row activation
system.mem_ctrls0.bytesPerActivate::total      4804724                       # Bytes accessed per row activation
system.mem_ctrls0.rdPerTurnAround::samples       156650                       # Reads before turning the bus around for writes
system.mem_ctrls0.rdPerTurnAround::mean     49.960683                       # Reads before turning the bus around for writes
system.mem_ctrls0.rdPerTurnAround::stdev   112.823529                       # Reads before turning the bus around for writes
system.mem_ctrls0.rdPerTurnAround::0-1023       156481     99.89%     99.89% # Reads before turning the bus around for writes
system.mem_ctrls0.rdPerTurnAround::1024-2047          127      0.08%     99.97% # Reads before turning the bus around for writes
system.mem_ctrls0.rdPerTurnAround::2048-3071           36      0.02%    100.00% # Reads before turning the bus around for writes
system.mem_ctrls0.rdPerTurnAround::3072-4095            5      0.00%    100.00% # Reads before turning the bus around for writes
system.mem_ctrls0.rdPerTurnAround::30720-31743            1      0.00%    100.00% # Reads before turning the bus around for writes
system.mem_ctrls0.rdPerTurnAround::total       156650                       # Reads before turning the bus around for writes
system.mem_ctrls0.wrPerTurnAround::samples       156650                       # Writes before turning the bus around for reads
system.mem_ctrls0.wrPerTurnAround::mean     17.383428                       # Writes before turning the bus around for reads
system.mem_ctrls0.wrPerTurnAround::gmean    17.352901                       # Writes before turning the bus around for reads
system.mem_ctrls0.wrPerTurnAround::stdev     1.022513                       # Writes before turning the bus around for reads
system.mem_ctrls0.wrPerTurnAround::16           51555     32.91%     32.91% # Writes before turning the bus around for reads
system.mem_ctrls0.wrPerTurnAround::17            3578      2.28%     35.20% # Writes before turning the bus around for reads
system.mem_ctrls0.wrPerTurnAround::18           92794     59.24%     94.43% # Writes before turning the bus around for reads
system.mem_ctrls0.wrPerTurnAround::19            7605      4.85%     99.29% # Writes before turning the bus around for reads
system.mem_ctrls0.wrPerTurnAround::20             916      0.58%     99.87% # Writes before turning the bus around for reads
system.mem_ctrls0.wrPerTurnAround::21             157      0.10%     99.97% # Writes before turning the bus around for reads
system.mem_ctrls0.wrPerTurnAround::22              34      0.02%     99.99% # Writes before turning the bus around for reads
system.mem_ctrls0.wrPerTurnAround::23               9      0.01%    100.00% # Writes before turning the bus around for reads
system.mem_ctrls0.wrPerTurnAround::24               1      0.00%    100.00% # Writes before turning the bus around for reads
system.mem_ctrls0.wrPerTurnAround::25               1      0.00%    100.00% # Writes before turning the bus around for reads
system.mem_ctrls0.wrPerTurnAround::total       156650                       # Writes before turning the bus around for reads
system.mem_ctrls0.totQLat                149587685356                       # Total ticks spent queuing
system.mem_ctrls0.totMemAccLat           296331860356                       # Total ticks spent from burst creation until serviced by the DRAM
system.mem_ctrls0.totBusLat               39131780000                       # Total ticks spent in databus transfers
system.mem_ctrls0.avgQLat                    19113.32                       # Average queueing delay per DRAM burst
system.mem_ctrls0.avgBusLat                   5000.00                       # Average bus latency per DRAM burst
system.mem_ctrls0.avgMemAccLat               37863.32                       # Average memory access latency per DRAM burst
system.mem_ctrls0.avgRdBW                      169.71                       # Average DRAM read bandwidth in MiByte/s
system.mem_ctrls0.avgWrBW                       59.05                       # Average achieved write bandwidth in MiByte/s
system.mem_ctrls0.avgRdBWSys                   169.88                       # Average system read bandwidth in MiByte/s
system.mem_ctrls0.avgWrBWSys                    59.05                       # Average system write bandwidth in MiByte/s
system.mem_ctrls0.peakBW                     12800.00                       # Theoretical peak bandwidth in MiByte/s
system.mem_ctrls0.busUtil                        1.79                       # Data bus utilization in percentage
system.mem_ctrls0.busUtilRead                    1.33                       # Data bus utilization in percentage for reads
system.mem_ctrls0.busUtilWrite                   0.46                       # Data bus utilization in percentage for writes
system.mem_ctrls0.avgRdQLen                      1.03                       # Average read queue length when enqueuing
system.mem_ctrls0.avgWrQLen                     24.72                       # Average write queue length when enqueuing
system.mem_ctrls0.readRowHits                 5045733                       # Number of row buffer hits during reads
system.mem_ctrls0.writeRowHits                 699008                       # Number of row buffer hits during writes
system.mem_ctrls0.readRowHitRate                64.47                       # Row buffer hit rate for reads
system.mem_ctrls0.writeRowHitRate               25.67                       # Row buffer hit rate for writes
system.mem_ctrls0.avgGap                    279557.46                       # Average gap between requests
system.mem_ctrls0.pageHitRate                   54.46                       # Row buffer hit rate, read and write combined
system.mem_ctrls0_0.actEnergy             17211969600                       # Energy for activate commands per rank (pJ)
system.mem_ctrls0_0.preEnergy              9148359825                       # Energy for precharge commands per rank (pJ)
system.mem_ctrls0_0.readEnergy            28238014560                       # Energy for read commands per rank (pJ)
system.mem_ctrls0_0.writeEnergy            7166694600                       # Energy for write commands per rank (pJ)
system.mem_ctrls0_0.refreshEnergy        224445015600.000061                       # Energy for refresh commands per rank (pJ)
system.mem_ctrls0_0.actBackEnergy        154714114470                       # Energy for active background per rank (pJ)
system.mem_ctrls0_0.preBackEnergy          6176939040                       # Energy for precharge background per rank (pJ)
system.mem_ctrls0_0.actPowerDownEnergy   943905433650                       # Energy for active power-down per rank (pJ)
system.mem_ctrls0_0.prePowerDownEnergy   125641082400                       # Energy for precharge power-down per rank (pJ)
system.mem_ctrls0_0.selfRefreshEnergy     54683065380                       # Energy for self refresh per rank (pJ)
system.mem_ctrls0_0.totalEnergy          1571427940995                       # Total energy per rank (pJ)
system.mem_ctrls0_0.averagePower           532.420534                       # Core power per rank (mW)
system.mem_ctrls0_0.totalIdleTime        2595902019787                       # Total Idle time Per DRAM Rank
system.mem_ctrls0_0.memoryStateTime::IDLE   5482198454                       # Time in different power states
system.mem_ctrls0_0.memoryStateTime::REF  95030464000                       # Time in different power states
system.mem_ctrls0_0.memoryStateTime::SREF 198732938924                       # Time in different power states
system.mem_ctrls0_0.memoryStateTime::PRE_PDN 327194309331                       # Time in different power states
system.mem_ctrls0_0.memoryStateTime::ACT 255063725554                       # Time in different power states
system.mem_ctrls0_0.memoryStateTime::ACT_PDN 2069975178822                       # Time in different power states
system.mem_ctrls0_1.actEnergy             17093795460                       # Energy for activate commands per rank (pJ)
system.mem_ctrls0_1.preEnergy              9085567755                       # Energy for precharge commands per rank (pJ)
system.mem_ctrls0_1.readEnergy            27642167280                       # Energy for read commands per rank (pJ)
system.mem_ctrls0_1.writeEnergy            7047960480                       # Energy for write commands per rank (pJ)
system.mem_ctrls0_1.refreshEnergy        223746784560.000061                       # Energy for refresh commands per rank (pJ)
system.mem_ctrls0_1.actBackEnergy        154270583790                       # Energy for active background per rank (pJ)
system.mem_ctrls0_1.preBackEnergy          6214669440                       # Energy for precharge background per rank (pJ)
system.mem_ctrls0_1.actPowerDownEnergy   936309454050                       # Energy for active power-down per rank (pJ)
system.mem_ctrls0_1.prePowerDownEnergy   126697722240                       # Energy for precharge power-down per rank (pJ)
system.mem_ctrls0_1.selfRefreshEnergy     58679878395                       # Energy for self refresh per rank (pJ)
system.mem_ctrls0_1.totalEnergy          1566872287590                       # Total energy per rank (pJ)
system.mem_ctrls0_1.averagePower           530.877018                       # Core power per rank (mW)
system.mem_ctrls0_1.totalIdleTime        2596806268917                       # Total Idle time Per DRAM Rank
system.mem_ctrls0_1.memoryStateTime::IDLE   5704715198                       # Time in different power states
system.mem_ctrls0_1.memoryStateTime::REF  94739178000                       # Time in different power states
system.mem_ctrls0_1.memoryStateTime::SREF 213543740614                       # Time in different power states
system.mem_ctrls0_1.memoryStateTime::PRE_PDN 329945675116                       # Time in different power states
system.mem_ctrls0_1.memoryStateTime::ACT 254228336200                       # Time in different power states
system.mem_ctrls0_1.memoryStateTime::ACT_PDN 2053317169957                       # Time in different power states
system.mem_ctrls1.pwrStateResidencyTicks::UNDEFINED 72981451396431                       # Cumulative time (in ticks) in various power states
system.mem_ctrls1.bytes_read::cpu.inst             64                       # Number of bytes read from this memory
system.mem_ctrls1.bytes_read::switch_cpus.inst       114304                       # Number of bytes read from this memory
system.mem_ctrls1.bytes_read::switch_cpus.data    414014976                       # Number of bytes read from this memory
system.mem_ctrls1.bytes_read::switch_cpus_1.inst        36800                       # Number of bytes read from this memory
system.mem_ctrls1.bytes_read::switch_cpus_1.data     88016128                       # Number of bytes read from this memory
system.mem_ctrls1.bytes_read::total         502182272                       # Number of bytes read from this memory
system.mem_ctrls1.bytes_inst_read::cpu.inst           64                       # Number of instructions bytes read from this memory
system.mem_ctrls1.bytes_inst_read::switch_cpus.inst       114304                       # Number of instructions bytes read from this memory
system.mem_ctrls1.bytes_inst_read::switch_cpus_1.inst        36800                       # Number of instructions bytes read from this memory
system.mem_ctrls1.bytes_inst_read::total       151168                       # Number of instructions bytes read from this memory
system.mem_ctrls1.bytes_written::writebacks    174249152                       # Number of bytes written to this memory
system.mem_ctrls1.bytes_written::total      174249152                       # Number of bytes written to this memory
system.mem_ctrls1.num_reads::cpu.inst               1                       # Number of read requests responded to by this memory
system.mem_ctrls1.num_reads::switch_cpus.inst         1786                       # Number of read requests responded to by this memory
system.mem_ctrls1.num_reads::switch_cpus.data      6468984                       # Number of read requests responded to by this memory
system.mem_ctrls1.num_reads::switch_cpus_1.inst          575                       # Number of read requests responded to by this memory
system.mem_ctrls1.num_reads::switch_cpus_1.data      1375252                       # Number of read requests responded to by this memory
system.mem_ctrls1.num_reads::total            7846598                       # Number of read requests responded to by this memory
system.mem_ctrls1.num_writes::writebacks      2722643                       # Number of write requests responded to by this memory
system.mem_ctrls1.num_writes::total           2722643                       # Number of write requests responded to by this memory
system.mem_ctrls1.bw_read::cpu.inst                22                       # Total read bandwidth from this memory (bytes/s)
system.mem_ctrls1.bw_read::switch_cpus.inst        38728                       # Total read bandwidth from this memory (bytes/s)
system.mem_ctrls1.bw_read::switch_cpus.data    140273741                       # Total read bandwidth from this memory (bytes/s)
system.mem_ctrls1.bw_read::switch_cpus_1.inst        12468                       # Total read bandwidth from this memory (bytes/s)
system.mem_ctrls1.bw_read::switch_cpus_1.data     29821027                       # Total read bandwidth from this memory (bytes/s)
system.mem_ctrls1.bw_read::total            170145986                       # Total read bandwidth from this memory (bytes/s)
system.mem_ctrls1.bw_inst_read::cpu.inst           22                       # Instruction read bandwidth from this memory (bytes/s)
system.mem_ctrls1.bw_inst_read::switch_cpus.inst        38728                       # Instruction read bandwidth from this memory (bytes/s)
system.mem_ctrls1.bw_inst_read::switch_cpus_1.inst        12468                       # Instruction read bandwidth from this memory (bytes/s)
system.mem_ctrls1.bw_inst_read::total           51218                       # Instruction read bandwidth from this memory (bytes/s)
system.mem_ctrls1.bw_write::writebacks       59037914                       # Write bandwidth from this memory (bytes/s)
system.mem_ctrls1.bw_write::total            59037914                       # Write bandwidth from this memory (bytes/s)
system.mem_ctrls1.bw_total::writebacks       59037914                       # Total bandwidth to/from this memory (bytes/s)
system.mem_ctrls1.bw_total::cpu.inst               22                       # Total bandwidth to/from this memory (bytes/s)
system.mem_ctrls1.bw_total::switch_cpus.inst        38728                       # Total bandwidth to/from this memory (bytes/s)
system.mem_ctrls1.bw_total::switch_cpus.data    140273741                       # Total bandwidth to/from this memory (bytes/s)
system.mem_ctrls1.bw_total::switch_cpus_1.inst        12468                       # Total bandwidth to/from this memory (bytes/s)
system.mem_ctrls1.bw_total::switch_cpus_1.data     29821027                       # Total bandwidth to/from this memory (bytes/s)
system.mem_ctrls1.bw_total::total           229183899                       # Total bandwidth to/from this memory (bytes/s)
system.mem_ctrls1.readReqs                    7846598                       # Number of read requests accepted
system.mem_ctrls1.writeReqs                   2722643                       # Number of write requests accepted
system.mem_ctrls1.readBursts                  7846598                       # Number of DRAM read bursts, including those serviced by the write queue
system.mem_ctrls1.writeBursts                 2722643                       # Number of DRAM write bursts, including those merged in the write queue
system.mem_ctrls1.bytesReadDRAM             501670912                       # Total number of bytes read from DRAM
system.mem_ctrls1.bytesReadWrQ                 511360                       # Total number of bytes read from write queue
system.mem_ctrls1.bytesWritten              174248064                       # Total number of bytes written to DRAM
system.mem_ctrls1.bytesReadSys              502182272                       # Total read bytes from the system interface side
system.mem_ctrls1.bytesWrittenSys           174249152                       # Total written bytes from the system interface side
system.mem_ctrls1.servicedByWrQ                  7990                       # Number of DRAM read bursts serviced by the write queue
system.mem_ctrls1.mergedWrBursts                    2                       # Number of DRAM write bursts merged with an existing one
system.mem_ctrls1.neitherReadNorWriteReqs            0                       # Number of requests that are neither read nor write
system.mem_ctrls1.perBankRdBursts::0           516486                       # Per bank write bursts
system.mem_ctrls1.perBankRdBursts::1           504483                       # Per bank write bursts
system.mem_ctrls1.perBankRdBursts::2           494739                       # Per bank write bursts
system.mem_ctrls1.perBankRdBursts::3           490771                       # Per bank write bursts
system.mem_ctrls1.perBankRdBursts::4           484720                       # Per bank write bursts
system.mem_ctrls1.perBankRdBursts::5           499175                       # Per bank write bursts
system.mem_ctrls1.perBankRdBursts::6           478482                       # Per bank write bursts
system.mem_ctrls1.perBankRdBursts::7           493096                       # Per bank write bursts
system.mem_ctrls1.perBankRdBursts::8           499283                       # Per bank write bursts
system.mem_ctrls1.perBankRdBursts::9           484327                       # Per bank write bursts
system.mem_ctrls1.perBankRdBursts::10          482800                       # Per bank write bursts
system.mem_ctrls1.perBankRdBursts::11          482370                       # Per bank write bursts
system.mem_ctrls1.perBankRdBursts::12          471714                       # Per bank write bursts
system.mem_ctrls1.perBankRdBursts::13          480506                       # Per bank write bursts
system.mem_ctrls1.perBankRdBursts::14          478756                       # Per bank write bursts
system.mem_ctrls1.perBankRdBursts::15          496900                       # Per bank write bursts
system.mem_ctrls1.perBankWrBursts::0           180969                       # Per bank write bursts
system.mem_ctrls1.perBankWrBursts::1           170431                       # Per bank write bursts
system.mem_ctrls1.perBankWrBursts::2           174368                       # Per bank write bursts
system.mem_ctrls1.perBankWrBursts::3           171777                       # Per bank write bursts
system.mem_ctrls1.perBankWrBursts::4           169675                       # Per bank write bursts
system.mem_ctrls1.perBankWrBursts::5           172846                       # Per bank write bursts
system.mem_ctrls1.perBankWrBursts::6           166606                       # Per bank write bursts
system.mem_ctrls1.perBankWrBursts::7           167287                       # Per bank write bursts
system.mem_ctrls1.perBankWrBursts::8           168537                       # Per bank write bursts
system.mem_ctrls1.perBankWrBursts::9           163372                       # Per bank write bursts
system.mem_ctrls1.perBankWrBursts::10          165215                       # Per bank write bursts
system.mem_ctrls1.perBankWrBursts::11          163253                       # Per bank write bursts
system.mem_ctrls1.perBankWrBursts::12          162492                       # Per bank write bursts
system.mem_ctrls1.perBankWrBursts::13          169699                       # Per bank write bursts
system.mem_ctrls1.perBankWrBursts::14          177546                       # Per bank write bursts
system.mem_ctrls1.perBankWrBursts::15          178553                       # Per bank write bursts
system.mem_ctrls1.numRdRetry                        0                       # Number of times read queue was full causing retry
system.mem_ctrls1.numWrRetry                        0                       # Number of times write queue was full causing retry
system.mem_ctrls1.totGap                 2951478680886                       # Total gap between requests
system.mem_ctrls1.readPktSize::0                    0                       # Read request sizes (log2)
system.mem_ctrls1.readPktSize::1                    0                       # Read request sizes (log2)
system.mem_ctrls1.readPktSize::2                    0                       # Read request sizes (log2)
system.mem_ctrls1.readPktSize::3                    0                       # Read request sizes (log2)
system.mem_ctrls1.readPktSize::4                    0                       # Read request sizes (log2)
system.mem_ctrls1.readPktSize::5                    0                       # Read request sizes (log2)
system.mem_ctrls1.readPktSize::6              7846598                       # Read request sizes (log2)
system.mem_ctrls1.writePktSize::0                   0                       # Write request sizes (log2)
system.mem_ctrls1.writePktSize::1                   0                       # Write request sizes (log2)
system.mem_ctrls1.writePktSize::2                   0                       # Write request sizes (log2)
system.mem_ctrls1.writePktSize::3                   0                       # Write request sizes (log2)
system.mem_ctrls1.writePktSize::4                   0                       # Write request sizes (log2)
system.mem_ctrls1.writePktSize::5                   0                       # Write request sizes (log2)
system.mem_ctrls1.writePktSize::6             2722643                       # Write request sizes (log2)
system.mem_ctrls1.rdQLenPdf::0                7454071                       # What read queue length does an incoming req see
system.mem_ctrls1.rdQLenPdf::1                 330620                       # What read queue length does an incoming req see
system.mem_ctrls1.rdQLenPdf::2                  49377                       # What read queue length does an incoming req see
system.mem_ctrls1.rdQLenPdf::3                   4537                       # What read queue length does an incoming req see
system.mem_ctrls1.rdQLenPdf::4                      3                       # What read queue length does an incoming req see
system.mem_ctrls1.rdQLenPdf::5                      0                       # What read queue length does an incoming req see
system.mem_ctrls1.rdQLenPdf::6                      0                       # What read queue length does an incoming req see
system.mem_ctrls1.rdQLenPdf::7                      0                       # What read queue length does an incoming req see
system.mem_ctrls1.rdQLenPdf::8                      0                       # What read queue length does an incoming req see
system.mem_ctrls1.rdQLenPdf::9                      0                       # What read queue length does an incoming req see
system.mem_ctrls1.rdQLenPdf::10                     0                       # What read queue length does an incoming req see
system.mem_ctrls1.rdQLenPdf::11                     0                       # What read queue length does an incoming req see
system.mem_ctrls1.rdQLenPdf::12                     0                       # What read queue length does an incoming req see
system.mem_ctrls1.rdQLenPdf::13                     0                       # What read queue length does an incoming req see
system.mem_ctrls1.rdQLenPdf::14                     0                       # What read queue length does an incoming req see
system.mem_ctrls1.rdQLenPdf::15                     0                       # What read queue length does an incoming req see
system.mem_ctrls1.rdQLenPdf::16                     0                       # What read queue length does an incoming req see
system.mem_ctrls1.rdQLenPdf::17                     0                       # What read queue length does an incoming req see
system.mem_ctrls1.rdQLenPdf::18                     0                       # What read queue length does an incoming req see
system.mem_ctrls1.rdQLenPdf::19                     0                       # What read queue length does an incoming req see
system.mem_ctrls1.rdQLenPdf::20                     0                       # What read queue length does an incoming req see
system.mem_ctrls1.rdQLenPdf::21                     0                       # What read queue length does an incoming req see
system.mem_ctrls1.rdQLenPdf::22                     0                       # What read queue length does an incoming req see
system.mem_ctrls1.rdQLenPdf::23                     0                       # What read queue length does an incoming req see
system.mem_ctrls1.rdQLenPdf::24                     0                       # What read queue length does an incoming req see
system.mem_ctrls1.rdQLenPdf::25                     0                       # What read queue length does an incoming req see
system.mem_ctrls1.rdQLenPdf::26                     0                       # What read queue length does an incoming req see
system.mem_ctrls1.rdQLenPdf::27                     0                       # What read queue length does an incoming req see
system.mem_ctrls1.rdQLenPdf::28                     0                       # What read queue length does an incoming req see
system.mem_ctrls1.rdQLenPdf::29                     0                       # What read queue length does an incoming req see
system.mem_ctrls1.rdQLenPdf::30                     0                       # What read queue length does an incoming req see
system.mem_ctrls1.rdQLenPdf::31                     0                       # What read queue length does an incoming req see
system.mem_ctrls1.wrQLenPdf::0                      2                       # What write queue length does an incoming req see
system.mem_ctrls1.wrQLenPdf::1                      2                       # What write queue length does an incoming req see
system.mem_ctrls1.wrQLenPdf::2                      2                       # What write queue length does an incoming req see
system.mem_ctrls1.wrQLenPdf::3                      2                       # What write queue length does an incoming req see
system.mem_ctrls1.wrQLenPdf::4                      2                       # What write queue length does an incoming req see
system.mem_ctrls1.wrQLenPdf::5                      2                       # What write queue length does an incoming req see
system.mem_ctrls1.wrQLenPdf::6                      2                       # What write queue length does an incoming req see
system.mem_ctrls1.wrQLenPdf::7                      2                       # What write queue length does an incoming req see
system.mem_ctrls1.wrQLenPdf::8                      2                       # What write queue length does an incoming req see
system.mem_ctrls1.wrQLenPdf::9                      2                       # What write queue length does an incoming req see
system.mem_ctrls1.wrQLenPdf::10                     2                       # What write queue length does an incoming req see
system.mem_ctrls1.wrQLenPdf::11                     2                       # What write queue length does an incoming req see
system.mem_ctrls1.wrQLenPdf::12                     2                       # What write queue length does an incoming req see
system.mem_ctrls1.wrQLenPdf::13                     2                       # What write queue length does an incoming req see
system.mem_ctrls1.wrQLenPdf::14                     2                       # What write queue length does an incoming req see
system.mem_ctrls1.wrQLenPdf::15                101452                       # What write queue length does an incoming req see
system.mem_ctrls1.wrQLenPdf::16                105915                       # What write queue length does an incoming req see
system.mem_ctrls1.wrQLenPdf::17                151340                       # What write queue length does an incoming req see
system.mem_ctrls1.wrQLenPdf::18                156529                       # What write queue length does an incoming req see
system.mem_ctrls1.wrQLenPdf::19                157422                       # What write queue length does an incoming req see
system.mem_ctrls1.wrQLenPdf::20                157539                       # What write queue length does an incoming req see
system.mem_ctrls1.wrQLenPdf::21                157504                       # What write queue length does an incoming req see
system.mem_ctrls1.wrQLenPdf::22                157747                       # What write queue length does an incoming req see
system.mem_ctrls1.wrQLenPdf::23                157793                       # What write queue length does an incoming req see
system.mem_ctrls1.wrQLenPdf::24                157949                       # What write queue length does an incoming req see
system.mem_ctrls1.wrQLenPdf::25                159394                       # What write queue length does an incoming req see
system.mem_ctrls1.wrQLenPdf::26                158176                       # What write queue length does an incoming req see
system.mem_ctrls1.wrQLenPdf::27                157519                       # What write queue length does an incoming req see
system.mem_ctrls1.wrQLenPdf::28                157527                       # What write queue length does an incoming req see
system.mem_ctrls1.wrQLenPdf::29                157651                       # What write queue length does an incoming req see
system.mem_ctrls1.wrQLenPdf::30                157722                       # What write queue length does an incoming req see
system.mem_ctrls1.wrQLenPdf::31                156679                       # What write queue length does an incoming req see
system.mem_ctrls1.wrQLenPdf::32                156603                       # What write queue length does an incoming req see
system.mem_ctrls1.wrQLenPdf::33                   118                       # What write queue length does an incoming req see
system.mem_ctrls1.wrQLenPdf::34                    27                       # What write queue length does an incoming req see
system.mem_ctrls1.wrQLenPdf::35                     4                       # What write queue length does an incoming req see
system.mem_ctrls1.wrQLenPdf::36                     1                       # What write queue length does an incoming req see
system.mem_ctrls1.wrQLenPdf::37                     0                       # What write queue length does an incoming req see
system.mem_ctrls1.wrQLenPdf::38                     0                       # What write queue length does an incoming req see
system.mem_ctrls1.wrQLenPdf::39                     0                       # What write queue length does an incoming req see
system.mem_ctrls1.wrQLenPdf::40                     0                       # What write queue length does an incoming req see
system.mem_ctrls1.wrQLenPdf::41                     0                       # What write queue length does an incoming req see
system.mem_ctrls1.wrQLenPdf::42                     0                       # What write queue length does an incoming req see
system.mem_ctrls1.wrQLenPdf::43                     0                       # What write queue length does an incoming req see
system.mem_ctrls1.wrQLenPdf::44                     0                       # What write queue length does an incoming req see
system.mem_ctrls1.wrQLenPdf::45                     0                       # What write queue length does an incoming req see
system.mem_ctrls1.wrQLenPdf::46                     0                       # What write queue length does an incoming req see
system.mem_ctrls1.wrQLenPdf::47                     0                       # What write queue length does an incoming req see
system.mem_ctrls1.wrQLenPdf::48                     0                       # What write queue length does an incoming req see
system.mem_ctrls1.wrQLenPdf::49                     0                       # What write queue length does an incoming req see
system.mem_ctrls1.wrQLenPdf::50                     0                       # What write queue length does an incoming req see
system.mem_ctrls1.wrQLenPdf::51                     0                       # What write queue length does an incoming req see
system.mem_ctrls1.wrQLenPdf::52                     0                       # What write queue length does an incoming req see
system.mem_ctrls1.wrQLenPdf::53                     0                       # What write queue length does an incoming req see
system.mem_ctrls1.wrQLenPdf::54                     0                       # What write queue length does an incoming req see
system.mem_ctrls1.wrQLenPdf::55                     0                       # What write queue length does an incoming req see
system.mem_ctrls1.wrQLenPdf::56                     0                       # What write queue length does an incoming req see
system.mem_ctrls1.wrQLenPdf::57                     0                       # What write queue length does an incoming req see
system.mem_ctrls1.wrQLenPdf::58                     0                       # What write queue length does an incoming req see
system.mem_ctrls1.wrQLenPdf::59                     0                       # What write queue length does an incoming req see
system.mem_ctrls1.wrQLenPdf::60                     0                       # What write queue length does an incoming req see
system.mem_ctrls1.wrQLenPdf::61                     0                       # What write queue length does an incoming req see
system.mem_ctrls1.wrQLenPdf::62                     0                       # What write queue length does an incoming req see
system.mem_ctrls1.wrQLenPdf::63                     0                       # What write queue length does an incoming req see
system.mem_ctrls1.bytesPerActivate::samples      4809099                       # Bytes accessed per row activation
system.mem_ctrls1.bytesPerActivate::mean   140.549917                       # Bytes accessed per row activation
system.mem_ctrls1.bytesPerActivate::gmean    98.070200                       # Bytes accessed per row activation
system.mem_ctrls1.bytesPerActivate::stdev   179.484589                       # Bytes accessed per row activation
system.mem_ctrls1.bytesPerActivate::0-127      3150895     65.52%     65.52% # Bytes accessed per row activation
system.mem_ctrls1.bytesPerActivate::128-255      1037120     21.57%     87.09% # Bytes accessed per row activation
system.mem_ctrls1.bytesPerActivate::256-383       242437      5.04%     92.13% # Bytes accessed per row activation
system.mem_ctrls1.bytesPerActivate::384-511       112790      2.35%     94.47% # Bytes accessed per row activation
system.mem_ctrls1.bytesPerActivate::512-639        62580      1.30%     95.77% # Bytes accessed per row activation
system.mem_ctrls1.bytesPerActivate::640-767        48270      1.00%     96.78% # Bytes accessed per row activation
system.mem_ctrls1.bytesPerActivate::768-895        46545      0.97%     97.74% # Bytes accessed per row activation
system.mem_ctrls1.bytesPerActivate::896-1023        33686      0.70%     98.45% # Bytes accessed per row activation
system.mem_ctrls1.bytesPerActivate::1024-1151        74776      1.55%    100.00% # Bytes accessed per row activation
system.mem_ctrls1.bytesPerActivate::total      4809099                       # Bytes accessed per row activation
system.mem_ctrls1.rdPerTurnAround::samples       156549                       # Reads before turning the bus around for writes
system.mem_ctrls1.rdPerTurnAround::mean     50.071262                       # Reads before turning the bus around for writes
system.mem_ctrls1.rdPerTurnAround::stdev   113.056414                       # Reads before turning the bus around for writes
system.mem_ctrls1.rdPerTurnAround::0-1023       156384     99.89%     99.89% # Reads before turning the bus around for writes
system.mem_ctrls1.rdPerTurnAround::1024-2047          131      0.08%     99.98% # Reads before turning the bus around for writes
system.mem_ctrls1.rdPerTurnAround::2048-3071           27      0.02%    100.00% # Reads before turning the bus around for writes
system.mem_ctrls1.rdPerTurnAround::3072-4095            6      0.00%    100.00% # Reads before turning the bus around for writes
system.mem_ctrls1.rdPerTurnAround::31744-32767            1      0.00%    100.00% # Reads before turning the bus around for writes
system.mem_ctrls1.rdPerTurnAround::total       156549                       # Reads before turning the bus around for writes
system.mem_ctrls1.wrPerTurnAround::samples       156549                       # Writes before turning the bus around for reads
system.mem_ctrls1.wrPerTurnAround::mean     17.391526                       # Writes before turning the bus around for reads
system.mem_ctrls1.wrPerTurnAround::gmean    17.361056                       # Writes before turning the bus around for reads
system.mem_ctrls1.wrPerTurnAround::stdev     1.021698                       # Writes before turning the bus around for reads
system.mem_ctrls1.wrPerTurnAround::16           51015     32.59%     32.59% # Writes before turning the bus around for reads
system.mem_ctrls1.wrPerTurnAround::17            3556      2.27%     34.86% # Writes before turning the bus around for reads
system.mem_ctrls1.wrPerTurnAround::18           92979     59.39%     94.25% # Writes before turning the bus around for reads
system.mem_ctrls1.wrPerTurnAround::19            7918      5.06%     99.31% # Writes before turning the bus around for reads
system.mem_ctrls1.wrPerTurnAround::20             897      0.57%     99.88% # Writes before turning the bus around for reads
system.mem_ctrls1.wrPerTurnAround::21             146      0.09%     99.98% # Writes before turning the bus around for reads
system.mem_ctrls1.wrPerTurnAround::22              22      0.01%     99.99% # Writes before turning the bus around for reads
system.mem_ctrls1.wrPerTurnAround::23              11      0.01%    100.00% # Writes before turning the bus around for reads
system.mem_ctrls1.wrPerTurnAround::24               4      0.00%    100.00% # Writes before turning the bus around for reads
system.mem_ctrls1.wrPerTurnAround::31               1      0.00%    100.00% # Writes before turning the bus around for reads
system.mem_ctrls1.wrPerTurnAround::total       156549                       # Writes before turning the bus around for reads
system.mem_ctrls1.totQLat                149693628917                       # Total ticks spent queuing
system.mem_ctrls1.totMemAccLat           296667528917                       # Total ticks spent from burst creation until serviced by the DRAM
system.mem_ctrls1.totBusLat               39193040000                       # Total ticks spent in databus transfers
system.mem_ctrls1.avgQLat                    19096.97                       # Average queueing delay per DRAM burst
system.mem_ctrls1.avgBusLat                   5000.00                       # Average bus latency per DRAM burst
system.mem_ctrls1.avgMemAccLat               37846.97                       # Average memory access latency per DRAM burst
system.mem_ctrls1.avgRdBW                      169.97                       # Average DRAM read bandwidth in MiByte/s
system.mem_ctrls1.avgWrBW                       59.04                       # Average achieved write bandwidth in MiByte/s
system.mem_ctrls1.avgRdBWSys                   170.15                       # Average system read bandwidth in MiByte/s
system.mem_ctrls1.avgWrBWSys                    59.04                       # Average system write bandwidth in MiByte/s
system.mem_ctrls1.peakBW                     12800.00                       # Theoretical peak bandwidth in MiByte/s
system.mem_ctrls1.busUtil                        1.79                       # Data bus utilization in percentage
system.mem_ctrls1.busUtilRead                    1.33                       # Data bus utilization in percentage for reads
system.mem_ctrls1.busUtilWrite                   0.46                       # Data bus utilization in percentage for writes
system.mem_ctrls1.avgRdQLen                      1.03                       # Average read queue length when enqueuing
system.mem_ctrls1.avgWrQLen                     24.69                       # Average write queue length when enqueuing
system.mem_ctrls1.readRowHits                 5052462                       # Number of row buffer hits during reads
system.mem_ctrls1.writeRowHits                 699666                       # Number of row buffer hits during writes
system.mem_ctrls1.readRowHitRate                64.46                       # Row buffer hit rate for reads
system.mem_ctrls1.writeRowHitRate               25.70                       # Row buffer hit rate for writes
system.mem_ctrls1.avgGap                    279251.72                       # Average gap between requests
system.mem_ctrls1.pageHitRate                   54.46                       # Row buffer hit rate, read and write combined
system.mem_ctrls1_0.actEnergy             17238965940                       # Energy for activate commands per rank (pJ)
system.mem_ctrls1_0.preEnergy              9162704925                       # Energy for precharge commands per rank (pJ)
system.mem_ctrls1_0.readEnergy            28288337280                       # Energy for read commands per rank (pJ)
system.mem_ctrls1_0.writeEnergy            7172065980                       # Energy for write commands per rank (pJ)
system.mem_ctrls1_0.refreshEnergy        224601134160.000061                       # Energy for refresh commands per rank (pJ)
system.mem_ctrls1_0.actBackEnergy        154528561800                       # Energy for active background per rank (pJ)
system.mem_ctrls1_0.preBackEnergy          6164778720                       # Energy for precharge background per rank (pJ)
system.mem_ctrls1_0.actPowerDownEnergy   947358710820                       # Energy for active power-down per rank (pJ)
system.mem_ctrls1_0.prePowerDownEnergy   124401843360                       # Energy for precharge power-down per rank (pJ)
system.mem_ctrls1_0.selfRefreshEnergy     53599024740                       # Energy for self refresh per rank (pJ)
system.mem_ctrls1_0.totalEnergy          1572612975075                       # Total energy per rank (pJ)
system.mem_ctrls1_0.averagePower           532.822038                       # Core power per rank (mW)
system.mem_ctrls1_0.totalIdleTime        2596335992037                       # Total Idle time Per DRAM Rank
system.mem_ctrls1_0.memoryStateTime::IDLE   5432644693                       # Time in different power states
system.mem_ctrls1_0.memoryStateTime::REF  95095076000                       # Time in different power states
system.mem_ctrls1_0.memoryStateTime::SREF 194826660757                       # Time in different power states
system.mem_ctrls1_0.memoryStateTime::PRE_PDN 323961821887                       # Time in different power states
system.mem_ctrls1_0.memoryStateTime::ACT 254614688732                       # Time in different power states
system.mem_ctrls1_0.memoryStateTime::ACT_PDN 2077547923016                       # Time in different power states
system.mem_ctrls1_1.actEnergy             17098050900                       # Energy for activate commands per rank (pJ)
system.mem_ctrls1_1.preEnergy              9087825780                       # Energy for precharge commands per rank (pJ)
system.mem_ctrls1_1.readEnergy            27679323840                       # Energy for read commands per rank (pJ)
system.mem_ctrls1_1.writeEnergy            7040041740                       # Energy for write commands per rank (pJ)
system.mem_ctrls1_1.refreshEnergy        223761535920.000061                       # Energy for refresh commands per rank (pJ)
system.mem_ctrls1_1.actBackEnergy        154698653790                       # Energy for active background per rank (pJ)
system.mem_ctrls1_1.preBackEnergy          6213120960                       # Energy for precharge background per rank (pJ)
system.mem_ctrls1_1.actPowerDownEnergy   936501695670                       # Energy for active power-down per rank (pJ)
system.mem_ctrls1_1.prePowerDownEnergy   126595705920                       # Energy for precharge power-down per rank (pJ)
system.mem_ctrls1_1.selfRefreshEnergy     58349158305                       # Energy for self refresh per rank (pJ)
system.mem_ctrls1_1.totalEnergy          1567109938425                       # Total energy per rank (pJ)
system.mem_ctrls1_1.averagePower           530.957535                       # Core power per rank (mW)
system.mem_ctrls1_1.totalIdleTime        2595851407985                       # Total Idle time Per DRAM Rank
system.mem_ctrls1_1.memoryStateTime::IDLE   5689260502                       # Time in different power states
system.mem_ctrls1_1.memoryStateTime::REF  94744194000                       # Time in different power states
system.mem_ctrls1_1.memoryStateTime::SREF 212450587767                       # Time in different power states
system.mem_ctrls1_1.memoryStateTime::PRE_PDN 329673281256                       # Time in different power states
system.mem_ctrls1_1.memoryStateTime::ACT 255193871551                       # Time in different power states
system.mem_ctrls1_1.memoryStateTime::ACT_PDN 2053727620009                       # Time in different power states
system.pwrStateResidencyTicks::UNDEFINED 72981451396431                       # Cumulative time (in ticks) in various power states
system.cpu.branchPred.lookups                       1                       # Number of BP lookups
system.cpu.branchPred.condPredicted                 1                       # Number of conditional branches predicted
system.cpu.branchPred.condIncorrect                 0                       # Number of conditional branches incorrect
system.cpu.branchPred.BTBLookups                    0                       # Number of BTB lookups
system.cpu.branchPred.BTBHits                       0                       # Number of BTB hits
system.cpu.branchPred.BTBCorrect                    0                       # Number of correct BTB predictions (this stat may not work properly.
system.cpu.branchPred.BTBHitPct                   nan                       # BTB Hit Percentage
system.cpu.branchPred.usedRAS                       0                       # Number of times the RAS was used to get a target.
system.cpu.branchPred.RASInCorrect                  0                       # Number of incorrect RAS predictions.
system.cpu.branchPred.indirectLookups               0                       # Number of indirect predictor lookups.
system.cpu.branchPred.indirectHits                  0                       # Number of indirect target hits.
system.cpu.branchPred.indirectMisses                0                       # Number of indirect misses.
system.cpu.branchPredindirectMispredicted            0                       # Number of mispredicted indirect branches.
system.cpu_voltage_domain.voltage                   1                       # Voltage in Volts
system.cpu_clk_domain.clock                       333                       # Clock period in ticks
system.cpu.dtb.fetch_hits                           0                       # ITB hits
system.cpu.dtb.fetch_misses                         0                       # ITB misses
system.cpu.dtb.fetch_acv                            0                       # ITB acv
system.cpu.dtb.fetch_accesses                       0                       # ITB accesses
system.cpu.dtb.read_hits                            2                       # DTB read hits
system.cpu.dtb.read_misses                          0                       # DTB read misses
system.cpu.dtb.read_acv                             0                       # DTB read access violations
system.cpu.dtb.read_accesses                        2                       # DTB read accesses
system.cpu.dtb.write_hits                           0                       # DTB write hits
system.cpu.dtb.write_misses                         0                       # DTB write misses
system.cpu.dtb.write_acv                            0                       # DTB write access violations
system.cpu.dtb.write_accesses                       0                       # DTB write accesses
system.cpu.dtb.data_hits                            2                       # DTB hits
system.cpu.dtb.data_misses                          0                       # DTB misses
system.cpu.dtb.data_acv                             0                       # DTB access violations
system.cpu.dtb.data_accesses                        2                       # DTB accesses
system.cpu.itb.fetch_hits                           3                       # ITB hits
system.cpu.itb.fetch_misses                         0                       # ITB misses
system.cpu.itb.fetch_acv                            0                       # ITB acv
system.cpu.itb.fetch_accesses                       3                       # ITB accesses
system.cpu.itb.read_hits                            0                       # DTB read hits
system.cpu.itb.read_misses                          0                       # DTB read misses
system.cpu.itb.read_acv                             0                       # DTB read access violations
system.cpu.itb.read_accesses                        0                       # DTB read accesses
system.cpu.itb.write_hits                           0                       # DTB write hits
system.cpu.itb.write_misses                         0                       # DTB write misses
system.cpu.itb.write_acv                            0                       # DTB write access violations
system.cpu.itb.write_accesses                       0                       # DTB write accesses
system.cpu.itb.data_hits                            0                       # DTB hits
system.cpu.itb.data_misses                          0                       # DTB misses
system.cpu.itb.data_acv                             0                       # DTB access violations
system.cpu.itb.data_accesses                        0                       # DTB accesses
system.cpu.workload.num_syscalls                    5                       # Number of system calls
system.cpu.pwrStateResidencyTicks::ON    2951478815085                       # Cumulative time (in ticks) in various power states
system.cpu.numCycles                              368                       # number of cpu cycles simulated
system.cpu.numWorkItemsStarted                      0                       # number of work items this cpu started
system.cpu.numWorkItemsCompleted                    0                       # number of work items this cpu completed
system.cpu.fetch.icacheStallCycles                 18                       # Number of cycles fetch is stalled on an Icache miss
system.cpu.fetch.Insts                             10                       # Number of instructions fetch has processed
system.cpu.fetch.Branches                           1                       # Number of branches that fetch encountered
system.cpu.fetch.Cycles                             2                       # Number of cycles fetch has run and was not squashing or blocked
system.cpu.fetch.SquashCycles                       3                       # Number of cycles fetch has spent squashing
system.cpu.fetch.PendingDrainCycles                 3                       # Number of cycles fetch has spent waiting on pipes to drain
system.cpu.fetch.CacheLines                         3                       # Number of cache lines fetched
system.cpu.fetch.IcacheSquashes                     2                       # Number of outstanding Icache misses that were squashed
system.cpu.fetch.rateDist::samples                 24                       # Number of instructions fetched each cycle (Total)
system.cpu.fetch.rateDist::mean              0.416667                       # Number of instructions fetched each cycle (Total)
system.cpu.fetch.rateDist::stdev             1.665942                       # Number of instructions fetched each cycle (Total)
system.cpu.fetch.rateDist::underflows               0      0.00%      0.00% # Number of instructions fetched each cycle (Total)
[...]
system.switch_cpus_1.iq.int_inst_queue_wakeup_accesses    196704990                       # Number of integer instruction queue wakeup accesses
system.switch_cpus_1.iq.fp_inst_queue_reads    132774246                       # Number of floating instruction queue reads
system.switch_cpus_1.iq.fp_inst_queue_writes     84828113                       # Number of floating instruction queue writes
system.switch_cpus_1.iq.fp_inst_queue_wakeup_accesses     59399980                       # Number of floating instruction queue wakeup accesses
system.switch_cpus_1.iq.int_alu_accesses    212782845                       # Number of integer alu accesses
system.switch_cpus_1.iq.fp_alu_accesses      67935931                       # Number of floating point alu accesses
system.switch_cpus_1.iew.lsq.thread0.forwLoads      2269854                       # Number of loads that had data forwarded from stores
system.switch_cpus_1.iew.lsq.thread0.invAddrLoads            0                       # Number of loads ignored due to an invalid address
system.switch_cpus_1.iew.lsq.thread0.squashedLoads     21552376                       # Number of loads squashed
system.switch_cpus_1.iew.lsq.thread0.ignoredResponses        14480                       # Number of memory responses ignored because the instruction is squashed
system.switch_cpus_1.iew.lsq.thread0.memOrderViolation         8795                       # Number of memory ordering violations
system.switch_cpus_1.iew.lsq.thread0.squashedStores      7154479                       # Number of stores squashed
system.switch_cpus_1.iew.lsq.thread0.invAddrSwpfs            0                       # Number of software prefetches ignored due to an invalid address
system.switch_cpus_1.iew.lsq.thread0.blockedLoads            0                       # Number of blocked loads due to partial load-store forwarding
system.switch_cpus_1.iew.lsq.thread0.rescheduledLoads         5988                       # Number of loads that were rescheduled
system.switch_cpus_1.iew.lsq.thread0.cacheBlocked     12725964                       # Number of times an access to memory failed due to the cache being blocked
system.switch_cpus_1.iew.iewIdleCycles              0                       # Number of cycles IEW is idle
system.switch_cpus_1.iew.iewSquashCycles      1486792                       # Number of cycles IEW is squashing
system.switch_cpus_1.iew.iewBlockCycles     142225120                       # Number of cycles IEW is blocking
system.switch_cpus_1.iew.iewUnblockCycles     62951579                       # Number of cycles IEW is unblocking
system.switch_cpus_1.iew.iewDispatchedInsts    292431250                       # Number of instructions dispatched to IQ
system.switch_cpus_1.iew.iewDispSquashedInsts       151564                       # Number of squashed instructions skipped by dispatch
system.switch_cpus_1.iew.iewDispLoadInsts     61224107                       # Number of dispatched load instructions
system.switch_cpus_1.iew.iewDispStoreInsts     19145522                       # Number of dispatched store instructions
system.switch_cpus_1.iew.iewDispNonSpecInsts          199                       # Number of dispatched non-speculative instructions
system.switch_cpus_1.iew.iewIQFullEvents      1013128                       # Number of times the IQ has become full, causing a stall
system.switch_cpus_1.iew.iewLSQFullEvents     61390006                       # Number of times the LSQ has become full, causing a stall
system.switch_cpus_1.iew.memOrderViolationEvents         8795                       # Number of memory order violations
system.switch_cpus_1.iew.predictedTakenIncorrect       824772                       # Number of branches that were predicted taken incorrectly
system.switch_cpus_1.iew.predictedNotTakenIncorrect       565101                       # Number of branches that were predicted not taken incorrectly
system.switch_cpus_1.iew.branchMispredicts      1389873                       # Number of branch mispredicts detected at execute
system.switch_cpus_1.iew.iewExecutedInsts    272101532                       # Number of executed instructions
system.switch_cpus_1.iew.iewExecLoadInsts     68218054                       # Number of load instructions executed
system.switch_cpus_1.iew.iewExecSquashedInsts      1768431                       # Number of squashed instructions skipped in execute
system.switch_cpus_1.iew.exec_swp                   0                       # number of swp insts executed
system.switch_cpus_1.iew.exec_nop             1880865                       # number of nop insts executed
system.switch_cpus_1.iew.exec_refs           83926391                       # number of memory reference insts executed
system.switch_cpus_1.iew.exec_branches       34722453                       # Number of branches executed
system.switch_cpus_1.iew.exec_stores         15708337                       # Number of stores executed
system.switch_cpus_1.iew.exec_rate           0.461254                       # Inst execution rate
system.switch_cpus_1.iew.wb_sent            258085427                       # cumulative count of insts sent to commit
system.switch_cpus_1.iew.wb_count           256104970                       # cumulative count of insts written-back
system.switch_cpus_1.iew.wb_producers       153786531                       # num instructions producing a value
system.switch_cpus_1.iew.wb_consumers       189639429                       # num instructions consuming a value
system.switch_cpus_1.iew.wb_rate             0.434137                       # insts written-back per cycle
system.switch_cpus_1.iew.wb_fanout           0.810942                       # average fanout of values written-back
system.switch_cpus_1.commit.commitSquashedInsts     87083080                       # The number of squashed insts skipped by commit
system.switch_cpus_1.commit.commitNonSpecStalls          204                       # The number of times commit has been forced to stall to communicate backwards
system.switch_cpus_1.commit.branchMispredicts      1113802                       # The number of times a branch was mispredicted
system.switch_cpus_1.commit.committed_per_cycle::samples    577584209                       # Number of insts commited each cycle
system.switch_cpus_1.commit.committed_per_cycle::mean     0.348379                       # Number of insts commited each cycle
system.switch_cpus_1.commit.committed_per_cycle::stdev     1.521237                       # Number of insts commited each cycle
system.switch_cpus_1.commit.committed_per_cycle::underflows            0      0.00%      0.00% # Number of insts commited each cycle
system.switch_cpus_1.commit.committed_per_cycle::0    538622300     93.25%     93.25% # Number of insts commited each cycle
system.switch_cpus_1.commit.committed_per_cycle::1      9163629      1.59%     94.84% # Number of insts commited each cycle
system.switch_cpus_1.commit.committed_per_cycle::2      4024530      0.70%     95.54% # Number of insts commited each cycle
system.switch_cpus_1.commit.committed_per_cycle::3      1833401      0.32%     95.86% # Number of insts commited each cycle
system.switch_cpus_1.commit.committed_per_cycle::4      1301925      0.23%     96.08% # Number of insts commited each cycle
system.switch_cpus_1.commit.committed_per_cycle::5      1826104      0.32%     96.40% # Number of insts commited each cycle
system.switch_cpus_1.commit.committed_per_cycle::6       729403      0.13%     96.52% # Number of insts commited each cycle
system.switch_cpus_1.commit.committed_per_cycle::7       872518      0.15%     96.67% # Number of insts commited each cycle
system.switch_cpus_1.commit.committed_per_cycle::8     19210399      3.33%    100.00% # Number of insts commited each cycle
system.switch_cpus_1.commit.committed_per_cycle::overflows            0      0.00%    100.00% # Number of insts commited each cycle
system.switch_cpus_1.commit.committed_per_cycle::min_value            0                       # Number of insts commited each cycle
system.switch_cpus_1.commit.committed_per_cycle::max_value            8                       # Number of insts commited each cycle
system.switch_cpus_1.commit.committed_per_cycle::total    577584209                       # Number of insts commited each cycle
system.switch_cpus_1.commit.committedInsts    201218348                       # Number of instructions committed
system.switch_cpus_1.commit.committedOps    201218348                       # Number of ops (including micro ops) committed
system.switch_cpus_1.commit.swp_count               0                       # Number of s/w prefetches committed
system.switch_cpus_1.commit.refs             51662749                       # Number of memory references committed
system.switch_cpus_1.commit.loads            39671713                       # Number of loads committed
system.switch_cpus_1.commit.membars               102                       # Number of memory barriers committed
system.switch_cpus_1.commit.branches         28384894                       # Number of branches committed
system.switch_cpus_1.commit.fp_insts         51627815                       # Number of committed floating point instructions.
system.switch_cpus_1.commit.int_insts       168624392                       # Number of committed integer instructions.
system.switch_cpus_1.commit.function_calls       460018                       # Number of function calls committed.
system.switch_cpus_1.commit.op_class_0::No_OpClass      1218344      0.61%      0.61% # Class of committed instruction
system.switch_cpus_1.commit.op_class_0::IntAlu    117264313     58.28%     58.88% # Class of committed instruction
system.switch_cpus_1.commit.op_class_0::IntMult       166526      0.08%     58.97% # Class of committed instruction
system.switch_cpus_1.commit.op_class_0::IntDiv            0      0.00%     58.97% # Class of committed instruction
system.switch_cpus_1.commit.op_class_0::FloatAdd     18908760      9.40%     68.36% # Class of committed instruction
system.switch_cpus_1.commit.op_class_0::FloatCmp     10580725      5.26%     73.62% # Class of committed instruction
system.switch_cpus_1.commit.op_class_0::FloatCvt         1376      0.00%     73.62% # Class of committed instruction
system.switch_cpus_1.commit.op_class_0::FloatMult       880508      0.44%     74.06% # Class of committed instruction
system.switch_cpus_1.commit.op_class_0::FloatMultAcc            0      0.00%     74.06% # Class of committed instruction
system.switch_cpus_1.commit.op_class_0::FloatDiv       534945      0.27%     74.32% # Class of committed instruction
system.switch_cpus_1.commit.op_class_0::FloatMisc            0      0.00%     74.32% # Class of committed instruction
system.switch_cpus_1.commit.op_class_0::FloatSqrt            0      0.00%     74.32% # Class of committed instruction
system.switch_cpus_1.commit.op_class_0::SimdAdd            0      0.00%     74.32% # Class of committed instruction
system.switch_cpus_1.commit.op_class_0::SimdAddAcc            0      0.00%     74.32% # Class of committed instruction
system.switch_cpus_1.commit.op_class_0::SimdAlu            0      0.00%     74.32% # Class of committed instruction
system.switch_cpus_1.commit.op_class_0::SimdCmp            0      0.00%     74.32% # Class of committed instruction
system.switch_cpus_1.commit.op_class_0::SimdCvt            0      0.00%     74.32% # Class of committed instruction
system.switch_cpus_1.commit.op_class_0::SimdMisc            0      0.00%     74.32% # Class of committed instruction
system.switch_cpus_1.commit.op_class_0::SimdMult            0      0.00%     74.32% # Class of committed instruction
system.switch_cpus_1.commit.op_class_0::SimdMultAcc            0      0.00%     74.32% # Class of committed instruction
system.switch_cpus_1.commit.op_class_0::SimdShift            0      0.00%     74.32% # Class of committed instruction
system.switch_cpus_1.commit.op_class_0::SimdShiftAcc            0      0.00%     74.32% # Class of committed instruction
system.switch_cpus_1.commit.op_class_0::SimdSqrt            0      0.00%     74.32% # Class of committed instruction
system.switch_cpus_1.commit.op_class_0::SimdFloatAdd            0      0.00%     74.32% # Class of committed instruction
system.switch_cpus_1.commit.op_class_0::SimdFloatAlu            0      0.00%     74.32% # Class of committed instruction
system.switch_cpus_1.commit.op_class_0::SimdFloatCmp            0      0.00%     74.32% # Class of committed instruction
system.switch_cpus_1.commit.op_class_0::SimdFloatCvt            0      0.00%     74.32% # Class of committed instruction
system.switch_cpus_1.commit.op_class_0::SimdFloatDiv            0      0.00%     74.32% # Class of committed instruction
system.switch_cpus_1.commit.op_class_0::SimdFloatMisc            0      0.00%     74.32% # Class of committed instruction
system.switch_cpus_1.commit.op_class_0::SimdFloatMult            0      0.00%     74.32% # Class of committed instruction
system.switch_cpus_1.commit.op_class_0::SimdFloatMultAcc            0      0.00%     74.32% # Class of committed instruction
system.switch_cpus_1.commit.op_class_0::SimdFloatSqrt            0      0.00%     74.32% # Class of committed instruction
system.switch_cpus_1.commit.op_class_0::MemRead     20146501     10.01%     84.34% # Class of committed instruction
system.switch_cpus_1.commit.op_class_0::MemWrite     10794849      5.36%     89.70% # Class of committed instruction
system.switch_cpus_1.commit.op_class_0::FloatMemRead     19525314      9.70%     99.41% # Class of committed instruction
system.switch_cpus_1.commit.op_class_0::FloatMemWrite      1196187      0.59%    100.00% # Class of committed instruction
system.switch_cpus_1.commit.op_class_0::IprAccess            0      0.00%    100.00% # Class of committed instruction
system.switch_cpus_1.commit.op_class_0::InstPrefetch            0      0.00%    100.00% # Class of committed instruction
system.switch_cpus_1.commit.op_class_0::total    201218348                       # Class of committed instruction
system.switch_cpus_1.commit.bw_lim_events     19210399                       # number cycles where commit BW limit reached
system.switch_cpus_1.rob.rob_reads          841910179                       # The number of ROB reads
system.switch_cpus_1.rob.rob_writes         588654096                       # The number of ROB writes
system.switch_cpus_1.timesIdled                  2281                       # Number of times that the entire CPU went into an idle state and unscheduled itself
system.switch_cpus_1.idleCycles                303110                       # Total number of cycles that the CPU has spent unscheduled due to idling
system.switch_cpus_1.committedInsts         200000004                       # Number of Instructions Simulated
system.switch_cpus_1.committedOps           200000004                       # Number of Ops (including micro ops) Simulated
system.switch_cpus_1.cpi                     2.949587                       # CPI: Cycles Per Instruction
system.switch_cpus_1.cpi_total               2.949587                       # CPI: Total CPI of All Threads
system.switch_cpus_1.ipc                     0.339031                       # IPC: Instructions Per Cycle
system.switch_cpus_1.ipc_total               0.339031                       # IPC: Total IPC of All Threads
system.switch_cpus_1.int_regfile_reads      354484938                       # number of integer regfile reads
system.switch_cpus_1.int_regfile_writes     160549412                       # number of integer regfile writes
system.switch_cpus_1.fp_regfile_reads        59564953                       # number of floating regfile reads
system.switch_cpus_1.fp_regfile_writes       46568186                       # number of floating regfile writes
system.switch_cpus_1.misc_regfile_reads           243                       # number of misc regfile reads
system.switch_cpus_1.misc_regfile_writes          204                       # number of misc regfile writes
system.tol3bus.snoop_filter.tot_requests     51979487                       # Total number of requests made to the snoop filter.
system.tol3bus.snoop_filter.hit_single_requests     25987532                       # Number of requests hitting in the snoop filter with a single holder of the requested data.
system.tol3bus.snoop_filter.hit_multi_requests            0                       # Number of requests hitting in the snoop filter with multiple (>1) holders of the requested data.
system.tol3bus.snoop_filter.tot_snoops         472798                       # Total number of snoops made to the snoop filter.
system.tol3bus.snoop_filter.hit_single_snoops       472798                       # Number of snoops hitting in the snoop filter with a single holder of the requested data.
system.tol3bus.snoop_filter.hit_multi_snoops            0                       # Number of snoops hitting in the snoop filter with multiple (>1) holders of the requested data.
system.tol3bus.pwrStateResidencyTicks::UNDEFINED 72981451396431                       # Cumulative time (in ticks) in various power states
system.tol3bus.trans_dist::ReadResp          19571773                       # Transaction distribution
system.tol3bus.trans_dist::WritebackDirty     17902708                       # Transaction distribution
system.tol3bus.trans_dist::CleanEvict        23758200                       # Transaction distribution
system.tol3bus.trans_dist::UpgradeReq              29                       # Transaction distribution
system.tol3bus.trans_dist::UpgradeResp             29                       # Transaction distribution
system.tol3bus.trans_dist::ReadExReq          6420182                       # Transaction distribution
system.tol3bus.trans_dist::ReadExResp         6420182                       # Transaction distribution
system.tol3bus.trans_dist::ReadSharedReq     19571773                       # Transaction distribution
system.tol3bus.pkt_count_system.cpu.l2.mem_side::system.l3.cpu_side     77971471                       # Packet count per connected master and slave (bytes)
system.tol3bus.pkt_size_system.cpu.l2.mem_side::system.l3.cpu_side   2460728576                       # Cumulative packet size per connected master and slave (bytes)
system.tol3bus.snoops                        15673405                       # Total snoops (count)
system.tol3bus.snoopTraffic                 348529856                       # Total snoop traffic (bytes)
system.tol3bus.snoop_fanout::samples         41665389                       # Request fanout histogram
system.tol3bus.snoop_fanout::mean            0.011347                       # Request fanout histogram
system.tol3bus.snoop_fanout::stdev           0.105919                       # Request fanout histogram
system.tol3bus.snoop_fanout::underflows             0      0.00%      0.00% # Request fanout histogram
system.tol3bus.snoop_fanout::0               41192591     98.87%     98.87% # Request fanout histogram
system.tol3bus.snoop_fanout::1                 472798      1.13%    100.00% # Request fanout histogram
system.tol3bus.snoop_fanout::overflows              0      0.00%    100.00% # Request fanout histogram
system.tol3bus.snoop_fanout::min_value              0                       # Request fanout histogram
system.tol3bus.snoop_fanout::max_value              1                       # Request fanout histogram
system.tol3bus.snoop_fanout::total           41665389                       # Request fanout histogram
system.tol3bus.reqLayer0.occupancy        21457326528                       # Layer occupancy (ticks)
system.tol3bus.reqLayer0.utilization              0.7                       # Layer utilization (%)
system.tol3bus.respLayer0.occupancy       17310651687                       # Layer occupancy (ticks)
system.tol3bus.respLayer0.utilization             0.6                       # Layer utilization (%)

---------- End Simulation Statistics   ----------
