
---------- Begin Simulation Statistics ----------
sim_seconds                                  1.154948                       # Number of seconds simulated
sim_ticks                                1154948341554                       # Number of ticks simulated
final_tick                               18808289732484                       # Number of ticks from beginning of simulation (restored from checkpoints and never reset)
sim_freq                                 1000000000000                       # Frequency of simulated ticks
host_inst_rate                                 512412                       # Simulator instruction rate (inst/s)
host_op_rate                                   512412                       # Simulator op (including micro ops) rate (op/s)
host_tick_rate                              493174447                       # Simulator tick rate (ticks/s)
host_mem_usage                                2396284                       # Number of bytes of host memory used
host_seconds                                  2341.87                       # Real time elapsed on the host
sim_insts                                  1200000011                       # Number of instructions simulated
sim_ops                                    1200000011                       # Number of ops (including micro ops) simulated
system.voltage_domain.voltage                       1                       # Voltage in Volts
system.clk_domain.clock                          1000                       # Clock period in ticks
system.mem_ctrls0.pwrStateResidencyTicks::UNDEFINED 18808289732484                       # Cumulative time (in ticks) in various power states
system.mem_ctrls0.bytes_read::cpu.inst            192                       # Number of bytes read from this memory
system.mem_ctrls0.bytes_read::switch_cpus.inst       116096                       # Number of bytes read from this memory
system.mem_ctrls0.bytes_read::switch_cpus.data      8056896                       # Number of bytes read from this memory
system.mem_ctrls0.bytes_read::switch_cpus_1.inst        14016                       # Number of bytes read from this memory
system.mem_ctrls0.bytes_read::switch_cpus_1.data      1367808                       # Number of bytes read from this memory
system.mem_ctrls0.bytes_read::total           9555008                       # Number of bytes read from this memory
system.mem_ctrls0.bytes_inst_read::cpu.inst          192                       # Number of instructions bytes read from this memory
system.mem_ctrls0.bytes_inst_read::switch_cpus.inst       116096                       # Number of instructions bytes read from this memory
system.mem_ctrls0.bytes_inst_read::switch_cpus_1.inst        14016                       # Number of instructions bytes read from this memory
system.mem_ctrls0.bytes_inst_read::total       130304                       # Number of instructions bytes read from this memory
system.mem_ctrls0.bytes_written::writebacks      5933824                       # Number of bytes written to this memory
system.mem_ctrls0.bytes_written::total        5933824                       # Number of bytes written to this memory
system.mem_ctrls0.num_reads::cpu.inst               3                       # Number of read requests responded to by this memory
system.mem_ctrls0.num_reads::switch_cpus.inst         1814                       # Number of read requests responded to by this memory
system.mem_ctrls0.num_reads::switch_cpus.data       125889                       # Number of read requests responded to by this memory
system.mem_ctrls0.num_reads::switch_cpus_1.inst          219                       # Number of read requests responded to by this memory
system.mem_ctrls0.num_reads::switch_cpus_1.data        21372                       # Number of read requests responded to by this memory
system.mem_ctrls0.num_reads::total             149297                       # Number of read requests responded to by this memory
system.mem_ctrls0.num_writes::writebacks        92716                       # Number of write requests responded to by this memory
system.mem_ctrls0.num_writes::total             92716                       # Number of write requests responded to by this memory
system.mem_ctrls0.bw_read::cpu.inst               166                       # Total read bandwidth from this memory (bytes/s)
system.mem_ctrls0.bw_read::switch_cpus.inst       100521                       # Total read bandwidth from this memory (bytes/s)
system.mem_ctrls0.bw_read::switch_cpus.data      6975980                       # Total read bandwidth from this memory (bytes/s)
system.mem_ctrls0.bw_read::switch_cpus_1.inst        12136                       # Total read bandwidth from this memory (bytes/s)
system.mem_ctrls0.bw_read::switch_cpus_1.data      1184302                       # Total read bandwidth from this memory (bytes/s)
system.mem_ctrls0.bw_read::total              8273104                       # Total read bandwidth from this memory (bytes/s)
system.mem_ctrls0.bw_inst_read::cpu.inst          166                       # Instruction read bandwidth from this memory (bytes/s)
system.mem_ctrls0.bw_inst_read::switch_cpus.inst       100521                       # Instruction read bandwidth from this memory (bytes/s)
system.mem_ctrls0.bw_inst_read::switch_cpus_1.inst        12136                       # Instruction read bandwidth from this memory (bytes/s)
system.mem_ctrls0.bw_inst_read::total          112822                       # Instruction read bandwidth from this memory (bytes/s)
system.mem_ctrls0.bw_write::writebacks        5137740                       # Write bandwidth from this memory (bytes/s)
system.mem_ctrls0.bw_write::total             5137740                       # Write bandwidth from this memory (bytes/s)
system.mem_ctrls0.bw_total::writebacks        5137740                       # Total bandwidth to/from this memory (bytes/s)
system.mem_ctrls0.bw_total::cpu.inst              166                       # Total bandwidth to/from this memory (bytes/s)
system.mem_ctrls0.bw_total::switch_cpus.inst       100521                       # Total bandwidth to/from this memory (bytes/s)
system.mem_ctrls0.bw_total::switch_cpus.data      6975980                       # Total bandwidth to/from this memory (bytes/s)
system.mem_ctrls0.bw_total::switch_cpus_1.inst        12136                       # Total bandwidth to/from this memory (bytes/s)
system.mem_ctrls0.bw_total::switch_cpus_1.data      1184302                       # Total bandwidth to/from this memory (bytes/s)
system.mem_ctrls0.bw_total::total            13410844                       # Total bandwidth to/from this memory (bytes/s)
system.mem_ctrls0.readReqs                     149297                       # Number of read requests accepted
system.mem_ctrls0.writeReqs                     92716                       # Number of write requests accepted
system.mem_ctrls0.readBursts                   149297                       # Number of DRAM read bursts, including those serviced by the write queue
system.mem_ctrls0.writeBursts                   92716                       # Number of DRAM write bursts, including those merged in the write queue
system.mem_ctrls0.bytesReadDRAM               9548800                       # Total number of bytes read from DRAM
system.mem_ctrls0.bytesReadWrQ                   6208                       # Total number of bytes read from write queue
system.mem_ctrls0.bytesWritten                5931968                       # Total number of bytes written to DRAM
system.mem_ctrls0.bytesReadSys                9555008                       # Total read bytes from the system interface side
system.mem_ctrls0.bytesWrittenSys             5933824                       # Total written bytes from the system interface side
system.mem_ctrls0.servicedByWrQ                    97                       # Number of DRAM read bursts serviced by the write queue
system.mem_ctrls0.mergedWrBursts                    0                       # Number of DRAM write bursts merged with an existing one
system.mem_ctrls0.neitherReadNorWriteReqs            0                       # Number of requests that are neither read nor write
system.mem_ctrls0.perBankRdBursts::0             9049                       # Per bank write bursts
system.mem_ctrls0.perBankRdBursts::1             9345                       # Per bank write bursts
system.mem_ctrls0.perBankRdBursts::2             9348                       # Per bank write bursts
system.mem_ctrls0.perBankRdBursts::3             9904                       # Per bank write bursts
system.mem_ctrls0.perBankRdBursts::4             9895                       # Per bank write bursts
system.mem_ctrls0.perBankRdBursts::5             9442                       # Per bank write bursts
system.mem_ctrls0.perBankRdBursts::6             8871                       # Per bank write bursts
system.mem_ctrls0.perBankRdBursts::7             8978                       # Per bank write bursts
system.mem_ctrls0.perBankRdBursts::8             9553                       # Per bank write bursts
system.mem_ctrls0.perBankRdBursts::9             9773                       # Per bank write bursts
system.mem_ctrls0.perBankRdBursts::10            9165                       # Per bank write bursts
system.mem_ctrls0.perBankRdBursts::11            9526                       # Per bank write bursts
system.mem_ctrls0.perBankRdBursts::12            9287                       # Per bank write bursts
system.mem_ctrls0.perBankRdBursts::13            9205                       # Per bank write bursts
system.mem_ctrls0.perBankRdBursts::14            9028                       # Per bank write bursts
system.mem_ctrls0.perBankRdBursts::15            8831                       # Per bank write bursts
system.mem_ctrls0.perBankWrBursts::0             5917                       # Per bank write bursts
system.mem_ctrls0.perBankWrBursts::1             6092                       # Per bank write bursts
system.mem_ctrls0.perBankWrBursts::2             5903                       # Per bank write bursts
system.mem_ctrls0.perBankWrBursts::3             6181                       # Per bank write bursts
system.mem_ctrls0.perBankWrBursts::4             6095                       # Per bank write bursts
system.mem_ctrls0.perBankWrBursts::5             5765                       # Per bank write bursts
system.mem_ctrls0.perBankWrBursts::6             5421                       # Per bank write bursts
system.mem_ctrls0.perBankWrBursts::7             5408                       # Per bank write bursts
system.mem_ctrls0.perBankWrBursts::8             5524                       # Per bank write bursts
system.mem_ctrls0.perBankWrBursts::9             5632                       # Per bank write bursts
system.mem_ctrls0.perBankWrBursts::10            5813                       # Per bank write bursts
system.mem_ctrls0.perBankWrBursts::11            6217                       # Per bank write bursts
system.mem_ctrls0.perBankWrBursts::12            5916                       # Per bank write bursts
system.mem_ctrls0.perBankWrBursts::13            5707                       # Per bank write bursts
system.mem_ctrls0.perBankWrBursts::14            5504                       # Per bank write bursts
system.mem_ctrls0.perBankWrBursts::15            5592                       # Per bank write bursts
system.mem_ctrls0.numRdRetry                        0                       # Number of times read queue was full causing retry
system.mem_ctrls0.numWrRetry                        0                       # Number of times write queue was full causing retry
system.mem_ctrls0.totGap                 1154948283945                       # Total gap between requests
system.mem_ctrls0.readPktSize::0                    0                       # Read request sizes (log2)
system.mem_ctrls0.readPktSize::1                    0                       # Read request sizes (log2)
system.mem_ctrls0.readPktSize::2                    0                       # Read request sizes (log2)
system.mem_ctrls0.readPktSize::3                    0                       # Read request sizes (log2)
system.mem_ctrls0.readPktSize::4                    0                       # Read request sizes (log2)
system.mem_ctrls0.readPktSize::5                    0                       # Read request sizes (log2)
system.mem_ctrls0.readPktSize::6               149297                       # Read request sizes (log2)
system.mem_ctrls0.writePktSize::0                   0                       # Write request sizes (log2)
system.mem_ctrls0.writePktSize::1                   0                       # Write request sizes (log2)
system.mem_ctrls0.writePktSize::2                   0                       # Write request sizes (log2)
system.mem_ctrls0.writePktSize::3                   0                       # Write request sizes (log2)
system.mem_ctrls0.writePktSize::4                   0                       # Write request sizes (log2)
system.mem_ctrls0.writePktSize::5                   0                       # Write request sizes (log2)
system.mem_ctrls0.writePktSize::6               92716                       # Write request sizes (log2)
system.mem_ctrls0.rdQLenPdf::0                 147621                       # What read queue length does an incoming req see
system.mem_ctrls0.rdQLenPdf::1                   1543                       # What read queue length does an incoming req see
system.mem_ctrls0.rdQLenPdf::2                     36                       # What read queue length does an incoming req see
system.mem_ctrls0.rdQLenPdf::3                      0                       # What read queue length does an incoming req see
system.mem_ctrls0.rdQLenPdf::4                      0                       # What read queue length does an incoming req see
system.mem_ctrls0.rdQLenPdf::5                      0                       # What read queue length does an incoming req see
system.mem_ctrls0.rdQLenPdf::6                      0                       # What read queue length does an incoming req see
system.mem_ctrls0.rdQLenPdf::7                      0                       # What read queue length does an incoming req see
system.mem_ctrls0.rdQLenPdf::8                      0                       # What read queue length does an incoming req see
system.mem_ctrls0.rdQLenPdf::9                      0                       # What read queue length does an incoming req see
system.mem_ctrls0.rdQLenPdf::10                     0                       # What read queue length does an incoming req see
system.mem_ctrls0.rdQLenPdf::11                     0                       # What read queue length does an incoming req see
system.mem_ctrls0.rdQLenPdf::12                     0                       # What read queue length does an incoming req see
system.mem_ctrls0.rdQLenPdf::13                     0                       # What read queue length does an incoming req see
system.mem_ctrls0.rdQLenPdf::14                     0                       # What read queue length does an incoming req see
system.mem_ctrls0.rdQLenPdf::15                     0                       # What read queue length does an incoming req see
system.mem_ctrls0.rdQLenPdf::16                     0                       # What read queue length does an incoming req see
system.mem_ctrls0.rdQLenPdf::17                     0                       # What read queue length does an incoming req see
system.mem_ctrls0.rdQLenPdf::18                     0                       # What read queue length does an incoming req see
system.mem_ctrls0.rdQLenPdf::19                     0                       # What read queue length does an incoming req see
system.mem_ctrls0.rdQLenPdf::20                     0                       # What read queue length does an incoming req see
system.mem_ctrls0.rdQLenPdf::21                     0                       # What read queue length does an incoming req see
system.mem_ctrls0.rdQLenPdf::22                     0                       # What read queue length does an incoming req see
system.mem_ctrls0.rdQLenPdf::23                     0                       # What read queue length does an incoming req see
system.mem_ctrls0.rdQLenPdf::24                     0                       # What read queue length does an incoming req see
system.mem_ctrls0.rdQLenPdf::25                     0                       # What read queue length does an incoming req see
system.mem_ctrls0.rdQLenPdf::26                     0                       # What read queue length does an incoming req see
system.mem_ctrls0.rdQLenPdf::27                     0                       # What read queue length does an incoming req see
system.mem_ctrls0.rdQLenPdf::28                     0                       # What read queue length does an incoming req see
system.mem_ctrls0.rdQLenPdf::29                     0                       # What read queue length does an incoming req see
system.mem_ctrls0.rdQLenPdf::30                     0                       # What read queue length does an incoming req see
system.mem_ctrls0.rdQLenPdf::31                     0                       # What read queue length does an incoming req see
system.mem_ctrls0.wrQLenPdf::0                      2                       # What write queue length does an incoming req see
system.mem_ctrls0.wrQLenPdf::1                      2                       # What write queue length does an incoming req see
system.mem_ctrls0.wrQLenPdf::2                      2                       # What write queue length does an incoming req see
system.mem_ctrls0.wrQLenPdf::3                      2                       # What write queue length does an incoming req see
system.mem_ctrls0.wrQLenPdf::4                      2                       # What write queue length does an incoming req see
system.mem_ctrls0.wrQLenPdf::5                      2                       # What write queue length does an incoming req see
system.mem_ctrls0.wrQLenPdf::6                      2                       # What write queue length does an incoming req see
system.mem_ctrls0.wrQLenPdf::7                      2                       # What write queue length does an incoming req see
system.mem_ctrls0.wrQLenPdf::8                      2                       # What write queue length does an incoming req see
system.mem_ctrls0.wrQLenPdf::9                      2                       # What write queue length does an incoming req see
system.mem_ctrls0.wrQLenPdf::10                     2                       # What write queue length does an incoming req see
system.mem_ctrls0.wrQLenPdf::11                     2                       # What write queue length does an incoming req see
system.mem_ctrls0.wrQLenPdf::12                     2                       # What write queue length does an incoming req see
system.mem_ctrls0.wrQLenPdf::13                     2                       # What write queue length does an incoming req see
system.mem_ctrls0.wrQLenPdf::14                     2                       # What write queue length does an incoming req see
system.mem_ctrls0.wrQLenPdf::15                  4416                       # What write queue length does an incoming req see
system.mem_ctrls0.wrQLenPdf::16                  4496                       # What write queue length does an incoming req see
system.mem_ctrls0.wrQLenPdf::17                  5153                       # What write queue length does an incoming req see
system.mem_ctrls0.wrQLenPdf::18                  5213                       # What write queue length does an incoming req see
system.mem_ctrls0.wrQLenPdf::19                  5233                       # What write queue length does an incoming req see
system.mem_ctrls0.wrQLenPdf::20                  5236                       # What write queue length does an incoming req see
system.mem_ctrls0.wrQLenPdf::21                  5237                       # What write queue length does an incoming req see
system.mem_ctrls0.wrQLenPdf::22                  5251                       # What write queue length does an incoming req see
system.mem_ctrls0.wrQLenPdf::23                  5264                       # What write queue length does an incoming req see
system.mem_ctrls0.wrQLenPdf::24                  5246                       # What write queue length does an incoming req see
system.mem_ctrls0.wrQLenPdf::25                  5242                       # What write queue length does an incoming req see
system.mem_ctrls0.wrQLenPdf::26                  5234                       # What write queue length does an incoming req see
system.mem_ctrls0.wrQLenPdf::27                  5233                       # What write queue length does an incoming req see
system.mem_ctrls0.wrQLenPdf::28                  5238                       # What write queue length does an incoming req see
system.mem_ctrls0.wrQLenPdf::29                  5223                       # What write queue length does an incoming req see
system.mem_ctrls0.wrQLenPdf::30                  5230                       # What write queue length does an incoming req see
system.mem_ctrls0.wrQLenPdf::31                  5213                       # What write queue length does an incoming req see
system.mem_ctrls0.wrQLenPdf::32                  5210                       # What write queue length does an incoming req see
system.mem_ctrls0.wrQLenPdf::33                    93                       # What write queue length does an incoming req see
system.mem_ctrls0.wrQLenPdf::34                    15                       # What write queue length does an incoming req see
system.mem_ctrls0.wrQLenPdf::35                     6                       # What write queue length does an incoming req see
system.mem_ctrls0.wrQLenPdf::36                     3                       # What write queue length does an incoming req see
system.mem_ctrls0.wrQLenPdf::37                     1                       # What write queue length does an incoming req see
system.mem_ctrls0.wrQLenPdf::38                     0                       # What write queue length does an incoming req see
system.mem_ctrls0.wrQLenPdf::39                     0                       # What write queue length does an incoming req see
system.mem_ctrls0.wrQLenPdf::40                     0                       # What write queue length does an incoming req see
system.mem_ctrls0.wrQLenPdf::41                     0                       # What write queue length does an incoming req see
system.mem_ctrls0.wrQLenPdf::42                     0                       # What write queue length does an incoming req see
system.mem_ctrls0.wrQLenPdf::43                     0                       # What write queue length does an incoming req see
system.mem_ctrls0.wrQLenPdf::44                     0                       # What write queue length does an incoming req see
system.mem_ctrls0.wrQLenPdf::45                     0                       # What write queue length does an incoming req see
system.mem_ctrls0.wrQLenPdf::46                     0                       # What write queue length does an incoming req see
system.mem_ctrls0.wrQLenPdf::47                     0                       # What write queue length does an incoming req see
system.mem_ctrls0.wrQLenPdf::48                     0                       # What write queue length does an incoming req see
system.mem_ctrls0.wrQLenPdf::49                     0                       # What write queue length does an incoming req see
system.mem_ctrls0.wrQLenPdf::50                     0                       # What write queue length does an incoming req see
system.mem_ctrls0.wrQLenPdf::51                     0                       # What write queue length does an incoming req see
system.mem_ctrls0.wrQLenPdf::52                     0                       # What write queue length does an incoming req see
system.mem_ctrls0.wrQLenPdf::53                     0                       # What write queue length does an incoming req see
system.mem_ctrls0.wrQLenPdf::54                     0                       # What write queue length does an incoming req see
system.mem_ctrls0.wrQLenPdf::55                     0                       # What write queue length does an incoming req see
system.mem_ctrls0.wrQLenPdf::56                     0                       # What write queue length does an incoming req see
system.mem_ctrls0.wrQLenPdf::57                     0                       # What write queue length does an incoming req see
system.mem_ctrls0.wrQLenPdf::58                     0                       # What write queue length does an incoming req see
system.mem_ctrls0.wrQLenPdf::59                     0                       # What write queue length does an incoming req see
system.mem_ctrls0.wrQLenPdf::60                     0                       # What write queue length does an incoming req see
system.mem_ctrls0.wrQLenPdf::61                     0                       # What write queue length does an incoming req see
system.mem_ctrls0.wrQLenPdf::62                     0                       # What write queue length does an incoming req see
system.mem_ctrls0.wrQLenPdf::63                     0                       # What write queue length does an incoming req see
system.mem_ctrls0.bytesPerActivate::samples       212718                       # Bytes accessed per row activation
system.mem_ctrls0.bytesPerActivate::mean    72.776013                       # Bytes accessed per row activation
system.mem_ctrls0.bytesPerActivate::gmean    68.278864                       # Bytes accessed per row activation
system.mem_ctrls0.bytesPerActivate::stdev    53.002868                       # Bytes accessed per row activation
system.mem_ctrls0.bytesPerActivate::0-127       197656     92.92%     92.92% # Bytes accessed per row activation
system.mem_ctrls0.bytesPerActivate::128-255        12871      6.05%     98.97% # Bytes accessed per row activation
system.mem_ctrls0.bytesPerActivate::256-383          927      0.44%     99.41% # Bytes accessed per row activation
system.mem_ctrls0.bytesPerActivate::384-511          357      0.17%     99.57% # Bytes accessed per row activation
system.mem_ctrls0.bytesPerActivate::512-639          207      0.10%     99.67% # Bytes accessed per row activation
system.mem_ctrls0.bytesPerActivate::640-767          302      0.14%     99.81% # Bytes accessed per row activation
system.mem_ctrls0.bytesPerActivate::768-895          145      0.07%     99.88% # Bytes accessed per row activation
system.mem_ctrls0.bytesPerActivate::896-1023           82      0.04%     99.92% # Bytes accessed per row activation
system.mem_ctrls0.bytesPerActivate::1024-1151          171      0.08%    100.00% # Bytes accessed per row activation
system.mem_ctrls0.bytesPerActivate::total       212718                       # Bytes accessed per row activation
system.mem_ctrls0.rdPerTurnAround::samples         5211                       # Reads before turning the bus around for writes
system.mem_ctrls0.rdPerTurnAround::mean     28.631741                       # Reads before turning the bus around for writes
system.mem_ctrls0.rdPerTurnAround::stdev   359.275304                       # Reads before turning the bus around for writes
system.mem_ctrls0.rdPerTurnAround::0-1023         5210     99.98%     99.98% # Reads before turning the bus around for writes
system.mem_ctrls0.rdPerTurnAround::25600-26623            1      0.02%    100.00% # Reads before turning the bus around for writes
system.mem_ctrls0.rdPerTurnAround::total         5211                       # Reads before turning the bus around for writes
system.mem_ctrls0.wrPerTurnAround::samples         5211                       # Writes before turning the bus around for reads
system.mem_ctrls0.wrPerTurnAround::mean     17.786797                       # Writes before turning the bus around for reads
system.mem_ctrls0.wrPerTurnAround::gmean    17.768078                       # Writes before turning the bus around for reads
system.mem_ctrls0.wrPerTurnAround::stdev     0.803081                       # Writes before turning the bus around for reads
system.mem_ctrls0.wrPerTurnAround::16             733     14.07%     14.07% # Writes before turning the bus around for reads
system.mem_ctrls0.wrPerTurnAround::17              60      1.15%     15.22% # Writes before turning the bus around for reads
system.mem_ctrls0.wrPerTurnAround::18            4064     77.99%     93.21% # Writes before turning the bus around for reads
system.mem_ctrls0.wrPerTurnAround::19             315      6.04%     99.25% # Writes before turning the bus around for reads
system.mem_ctrls0.wrPerTurnAround::20              27      0.52%     99.77% # Writes before turning the bus around for reads
system.mem_ctrls0.wrPerTurnAround::21               4      0.08%     99.85% # Writes before turning the bus around for reads
system.mem_ctrls0.wrPerTurnAround::22               6      0.12%     99.96% # Writes before turning the bus around for reads
system.mem_ctrls0.wrPerTurnAround::23               2      0.04%    100.00% # Writes before turning the bus around for reads
system.mem_ctrls0.wrPerTurnAround::total         5211                       # Writes before turning the bus around for reads
system.mem_ctrls0.totQLat                 28120573953                       # Total ticks spent queuing
system.mem_ctrls0.totMemAccLat            30918073953                       # Total ticks spent from burst creation until serviced by the DRAM
system.mem_ctrls0.totBusLat                 746000000                       # Total ticks spent in databus transfers
system.mem_ctrls0.avgQLat                   188475.70                       # Average queueing delay per DRAM burst
system.mem_ctrls0.avgBusLat                   5000.00                       # Average bus latency per DRAM burst
system.mem_ctrls0.avgMemAccLat              207225.70                       # Average memory access latency per DRAM burst
system.mem_ctrls0.avgRdBW                        8.27                       # Average DRAM read bandwidth in MiByte/s
system.mem_ctrls0.avgWrBW                        5.14                       # Average achieved write bandwidth in MiByte/s
system.mem_ctrls0.avgRdBWSys                     8.27                       # Average system read bandwidth in MiByte/s
system.mem_ctrls0.avgWrBWSys                     5.14                       # Average system write bandwidth in MiByte/s
system.mem_ctrls0.peakBW                     12800.00                       # Theoretical peak bandwidth in MiByte/s
system.mem_ctrls0.busUtil                        0.10                       # Data bus utilization in percentage
system.mem_ctrls0.busUtilRead                    0.06                       # Data bus utilization in percentage for reads
system.mem_ctrls0.busUtilWrite                   0.04                       # Data bus utilization in percentage for writes
system.mem_ctrls0.avgRdQLen                      1.00                       # Average read queue length when enqueuing
system.mem_ctrls0.avgWrQLen                     20.81                       # Average write queue length when enqueuing
system.mem_ctrls0.readRowHits                   20133                       # Number of row buffer hits during reads
system.mem_ctrls0.writeRowHits                   9036                       # Number of row buffer hits during writes
system.mem_ctrls0.readRowHitRate                13.49                       # Row buffer hit rate for reads
system.mem_ctrls0.writeRowHitRate                9.75                       # Row buffer hit rate for writes
system.mem_ctrls0.avgGap                   4772257.21                       # Average gap between requests
system.mem_ctrls0.pageHitRate                   12.06                       # Row buffer hit rate, read and write combined
system.mem_ctrls0_0.actEnergy               764601180                       # Energy for activate commands per rank (pJ)
system.mem_ctrls0_0.preEnergy               406395165                       # Energy for precharge commands per rank (pJ)
system.mem_ctrls0_0.readEnergy              534300480                       # Energy for read commands per rank (pJ)
system.mem_ctrls0_0.writeEnergy             244202040                       # Energy for write commands per rank (pJ)
system.mem_ctrls0_0.refreshEnergy        59265432720.000015                       # Energy for refresh commands per rank (pJ)
system.mem_ctrls0_0.actBackEnergy         20627765910                       # Energy for active background per rank (pJ)
system.mem_ctrls0_0.preBackEnergy          3462522720                       # Energy for precharge background per rank (pJ)
system.mem_ctrls0_0.actPowerDownEnergy   117275041590                       # Energy for active power-down per rank (pJ)
system.mem_ctrls0_0.prePowerDownEnergy    98573808000                       # Energy for precharge power-down per rank (pJ)
system.mem_ctrls0_0.selfRefreshEnergy    154752923325                       # Energy for self refresh per rank (pJ)
system.mem_ctrls0_0.totalEnergy          455933980980                       # Total energy per rank (pJ)
system.mem_ctrls0_0.averagePower           394.765691                       # Core power per rank (mW)
system.mem_ctrls0_0.totalIdleTime        1100628108949                       # Total Idle time Per DRAM Rank
system.mem_ctrls0_0.memoryStateTime::IDLE   6932468260                       # Time in different power states
system.mem_ctrls0_0.memoryStateTime::REF  25223928000                       # Time in different power states
system.mem_ctrls0_0.memoryStateTime::SREF 586750287304                       # Time in different power states
system.mem_ctrls0_0.memoryStateTime::PRE_PDN 256702722499                       # Time in different power states
system.mem_ctrls0_0.memoryStateTime::ACT  22156519361                       # Time in different power states
system.mem_ctrls0_0.memoryStateTime::ACT_PDN 257182416130                       # Time in different power states
system.mem_ctrls0_1.actEnergy               754205340                       # Energy for activate commands per rank (pJ)
system.mem_ctrls0_1.preEnergy               400869645                       # Energy for precharge commands per rank (pJ)
system.mem_ctrls0_1.readEnergy              530987520                       # Energy for read commands per rank (pJ)
system.mem_ctrls0_1.writeEnergy             239624100                       # Energy for write commands per rank (pJ)
system.mem_ctrls0_1.refreshEnergy        59341033440.000015                       # Energy for refresh commands per rank (pJ)
system.mem_ctrls0_1.actBackEnergy         20642128770                       # Energy for active background per rank (pJ)
system.mem_ctrls0_1.preBackEnergy          3495084960                       # Energy for precharge background per rank (pJ)
system.mem_ctrls0_1.actPowerDownEnergy   116627571180                       # Energy for active power-down per rank (pJ)
system.mem_ctrls0_1.prePowerDownEnergy    98718005760                       # Energy for precharge power-down per rank (pJ)
system.mem_ctrls0_1.selfRefreshEnergy    155119422555                       # Energy for self refresh per rank (pJ)
system.mem_ctrls0_1.totalEnergy          455896223520                       # Total energy per rank (pJ)
system.mem_ctrls0_1.averagePower           394.732996                       # Core power per rank (mW)
system.mem_ctrls0_1.totalIdleTime        1100507868899                       # Total Idle time Per DRAM Rank
system.mem_ctrls0_1.memoryStateTime::IDLE   7021156854                       # Time in different power states
system.mem_ctrls0_1.memoryStateTime::REF  25257366000                       # Time in different power states
system.mem_ctrls0_1.memoryStateTime::SREF 587677643554                       # Time in different power states
system.mem_ctrls0_1.memoryStateTime::PRE_PDN 257078042979                       # Time in different power states
system.mem_ctrls0_1.memoryStateTime::ACT  22151997099                       # Time in different power states
system.mem_ctrls0_1.memoryStateTime::ACT_PDN 255762135068                       # Time in different power states
system.mem_ctrls1.pwrStateResidencyTicks::UNDEFINED 18808289732484                       # Cumulative time (in ticks) in various power states
system.mem_ctrls1.bytes_read::cpu.inst            128                       # Number of bytes read from this memory
system.mem_ctrls1.bytes_read::cpu.data            192                       # Number of bytes read from this memory
system.mem_ctrls1.bytes_read::switch_cpus.inst       115008                       # Number of bytes read from this memory
system.mem_ctrls1.bytes_read::switch_cpus.data      8077184                       # Number of bytes read from this memory
system.mem_ctrls1.bytes_read::switch_cpus_1.inst        14208                       # Number of bytes read from this memory
system.mem_ctrls1.bytes_read::switch_cpus_1.data      1377856                       # Number of bytes read from this memory
system.mem_ctrls1.bytes_read::total           9584576                       # Number of bytes read from this memory
system.mem_ctrls1.bytes_inst_read::cpu.inst          128                       # Number of instructions bytes read from this memory
system.mem_ctrls1.bytes_inst_read::switch_cpus.inst       115008                       # Number of instructions bytes read from this memory
system.mem_ctrls1.bytes_inst_read::switch_cpus_1.inst        14208                       # Number of instructions bytes read from this memory
system.mem_ctrls1.bytes_inst_read::total       129344                       # Number of instructions bytes read from this memory
system.mem_ctrls1.bytes_written::writebacks      5943360                       # Number of bytes written to this memory
system.mem_ctrls1.bytes_written::total        5943360                       # Number of bytes written to this memory
system.mem_ctrls1.num_reads::cpu.inst               2                       # Number of read requests responded to by this memory
system.mem_ctrls1.num_reads::cpu.data               3                       # Number of read requests responded to by this memory
system.mem_ctrls1.num_reads::switch_cpus.inst         1797                       # Number of read requests responded to by this memory
system.mem_ctrls1.num_reads::switch_cpus.data       126206                       # Number of read requests responded to by this memory
system.mem_ctrls1.num_reads::switch_cpus_1.inst          222                       # Number of read requests responded to by this memory
system.mem_ctrls1.num_reads::switch_cpus_1.data        21529                       # Number of read requests responded to by this memory
system.mem_ctrls1.num_reads::total             149759                       # Number of read requests responded to by this memory
system.mem_ctrls1.num_writes::writebacks        92865                       # Number of write requests responded to by this memory
system.mem_ctrls1.num_writes::total             92865                       # Number of write requests responded to by this memory
system.mem_ctrls1.bw_read::cpu.inst               111                       # Total read bandwidth from this memory (bytes/s)
system.mem_ctrls1.bw_read::cpu.data               166                       # Total read bandwidth from this memory (bytes/s)
system.mem_ctrls1.bw_read::switch_cpus.inst        99578                       # Total read bandwidth from this memory (bytes/s)
system.mem_ctrls1.bw_read::switch_cpus.data      6993546                       # Total read bandwidth from this memory (bytes/s)
system.mem_ctrls1.bw_read::switch_cpus_1.inst        12302                       # Total read bandwidth from this memory (bytes/s)
system.mem_ctrls1.bw_read::switch_cpus_1.data      1193002                       # Total read bandwidth from this memory (bytes/s)
system.mem_ctrls1.bw_read::total              8298705                       # Total read bandwidth from this memory (bytes/s)
system.mem_ctrls1.bw_inst_read::cpu.inst          111                       # Instruction read bandwidth from this memory (bytes/s)
system.mem_ctrls1.bw_inst_read::switch_cpus.inst        99578                       # Instruction read bandwidth from this memory (bytes/s)
system.mem_ctrls1.bw_inst_read::switch_cpus_1.inst        12302                       # Instruction read bandwidth from this memory (bytes/s)
system.mem_ctrls1.bw_inst_read::total          111991                       # Instruction read bandwidth from this memory (bytes/s)
system.mem_ctrls1.bw_write::writebacks        5145996                       # Write bandwidth from this memory (bytes/s)
system.mem_ctrls1.bw_write::total             5145996                       # Write bandwidth from this memory (bytes/s)
system.mem_ctrls1.bw_total::writebacks        5145996                       # Total bandwidth to/from this memory (bytes/s)
system.mem_ctrls1.bw_total::cpu.inst              111                       # Total bandwidth to/from this memory (bytes/s)
system.mem_ctrls1.bw_total::cpu.data              166                       # Total bandwidth to/from this memory (bytes/s)
system.mem_ctrls1.bw_total::switch_cpus.inst        99578                       # Total bandwidth to/from this memory (bytes/s)
system.mem_ctrls1.bw_total::switch_cpus.data      6993546                       # Total bandwidth to/from this memory (bytes/s)
system.mem_ctrls1.bw_total::switch_cpus_1.inst        12302                       # Total bandwidth to/from this memory (bytes/s)
system.mem_ctrls1.bw_total::switch_cpus_1.data      1193002                       # Total bandwidth to/from this memory (bytes/s)
system.mem_ctrls1.bw_total::total            13444702                       # Total bandwidth to/from this memory (bytes/s)
system.mem_ctrls1.readReqs                     149759                       # Number of read requests accepted
system.mem_ctrls1.writeReqs                     92865                       # Number of write requests accepted
system.mem_ctrls1.readBursts                   149759                       # Number of DRAM read bursts, including those serviced by the write queue
system.mem_ctrls1.writeBursts                   92865                       # Number of DRAM write bursts, including those merged in the write queue
system.mem_ctrls1.bytesReadDRAM               9579136                       # Total number of bytes read from DRAM
system.mem_ctrls1.bytesReadWrQ                   5440                       # Total number of bytes read from write queue
system.mem_ctrls1.bytesWritten                5941760                       # Total number of bytes written to DRAM
system.mem_ctrls1.bytesReadSys                9584576                       # Total read bytes from the system interface side
system.mem_ctrls1.bytesWrittenSys             5943360                       # Total written bytes from the system interface side
system.mem_ctrls1.servicedByWrQ                    85                       # Number of DRAM read bursts serviced by the write queue
system.mem_ctrls1.mergedWrBursts                    0                       # Number of DRAM write bursts merged with an existing one
system.mem_ctrls1.neitherReadNorWriteReqs            0                       # Number of requests that are neither read nor write
system.mem_ctrls1.perBankRdBursts::0             9075                       # Per bank write bursts
system.mem_ctrls1.perBankRdBursts::1             9361                       # Per bank write bursts
system.mem_ctrls1.perBankRdBursts::2             9501                       # Per bank write bursts
system.mem_ctrls1.perBankRdBursts::3             9821                       # Per bank write bursts
system.mem_ctrls1.perBankRdBursts::4             9738                       # Per bank write bursts
system.mem_ctrls1.perBankRdBursts::5             9654                       # Per bank write bursts
system.mem_ctrls1.perBankRdBursts::6             8840                       # Per bank write bursts
system.mem_ctrls1.perBankRdBursts::7             9133                       # Per bank write bursts
system.mem_ctrls1.perBankRdBursts::8             9538                       # Per bank write bursts
system.mem_ctrls1.perBankRdBursts::9             9765                       # Per bank write bursts
system.mem_ctrls1.perBankRdBursts::10            9250                       # Per bank write bursts
system.mem_ctrls1.perBankRdBursts::11            9641                       # Per bank write bursts
system.mem_ctrls1.perBankRdBursts::12            9403                       # Per bank write bursts
system.mem_ctrls1.perBankRdBursts::13            9203                       # Per bank write bursts
system.mem_ctrls1.perBankRdBursts::14            8856                       # Per bank write bursts
system.mem_ctrls1.perBankRdBursts::15            8895                       # Per bank write bursts
system.mem_ctrls1.perBankWrBursts::0             5838                       # Per bank write bursts
system.mem_ctrls1.perBankWrBursts::1             6044                       # Per bank write bursts
system.mem_ctrls1.perBankWrBursts::2             5937                       # Per bank write bursts
system.mem_ctrls1.perBankWrBursts::3             6116                       # Per bank write bursts
system.mem_ctrls1.perBankWrBursts::4             6010                       # Per bank write bursts
system.mem_ctrls1.perBankWrBursts::5             5913                       # Per bank write bursts
system.mem_ctrls1.perBankWrBursts::6             5342                       # Per bank write bursts
system.mem_ctrls1.perBankWrBursts::7             5490                       # Per bank write bursts
system.mem_ctrls1.perBankWrBursts::8             5496                       # Per bank write bursts
system.mem_ctrls1.perBankWrBursts::9             5642                       # Per bank write bursts
system.mem_ctrls1.perBankWrBursts::10            5878                       # Per bank write bursts
system.mem_ctrls1.perBankWrBursts::11            6321                       # Per bank write bursts
system.mem_ctrls1.perBankWrBursts::12            5993                       # Per bank write bursts
system.mem_ctrls1.perBankWrBursts::13            5666                       # Per bank write bursts
system.mem_ctrls1.perBankWrBursts::14            5494                       # Per bank write bursts
system.mem_ctrls1.perBankWrBursts::15            5660                       # Per bank write bursts
system.mem_ctrls1.numRdRetry                        0                       # Number of times read queue was full causing retry
system.mem_ctrls1.numWrRetry                        0                       # Number of times write queue was full causing retry
system.mem_ctrls1.totGap                 1154944900332                       # Total gap between requests
system.mem_ctrls1.readPktSize::0                    0                       # Read request sizes (log2)
system.mem_ctrls1.readPktSize::1                    0                       # Read request sizes (log2)
system.mem_ctrls1.readPktSize::2                    0                       # Read request sizes (log2)
system.mem_ctrls1.readPktSize::3                    0                       # Read request sizes (log2)
system.mem_ctrls1.readPktSize::4                    0                       # Read request sizes (log2)
system.mem_ctrls1.readPktSize::5                    0                       # Read request sizes (log2)
system.mem_ctrls1.readPktSize::6               149759                       # Read request sizes (log2)
system.mem_ctrls1.writePktSize::0                   0                       # Write request sizes (log2)
system.mem_ctrls1.writePktSize::1                   0                       # Write request sizes (log2)
system.mem_ctrls1.writePktSize::2                   0                       # Write request sizes (log2)
system.mem_ctrls1.writePktSize::3                   0                       # Write request sizes (log2)
system.mem_ctrls1.writePktSize::4                   0                       # Write request sizes (log2)
system.mem_ctrls1.writePktSize::5                   0                       # Write request sizes (log2)
system.mem_ctrls1.writePktSize::6               92865                       # Write request sizes (log2)
system.mem_ctrls1.rdQLenPdf::0                 148019                       # What read queue length does an incoming req see
system.mem_ctrls1.rdQLenPdf::1                   1628                       # What read queue length does an incoming req see
system.mem_ctrls1.rdQLenPdf::2                     26                       # What read queue length does an incoming req see
system.mem_ctrls1.rdQLenPdf::3                      1                       # What read queue length does an incoming req see
system.mem_ctrls1.rdQLenPdf::4                      0                       # What read queue length does an incoming req see
system.mem_ctrls1.rdQLenPdf::5                      0                       # What read queue length does an incoming req see
system.mem_ctrls1.rdQLenPdf::6                      0                       # What read queue length does an incoming req see
system.mem_ctrls1.rdQLenPdf::7                      0                       # What read queue length does an incoming req see
system.mem_ctrls1.rdQLenPdf::8                      0                       # What read queue length does an incoming req see
system.mem_ctrls1.rdQLenPdf::9                      0                       # What read queue length does an incoming req see
system.mem_ctrls1.rdQLenPdf::10                     0                       # What read queue length does an incoming req see
system.mem_ctrls1.rdQLenPdf::11                     0                       # What read queue length does an incoming req see
system.mem_ctrls1.rdQLenPdf::12                     0                       # What read queue length does an incoming req see
system.mem_ctrls1.rdQLenPdf::13                     0                       # What read queue length does an incoming req see
system.mem_ctrls1.rdQLenPdf::14                     0                       # What read queue length does an incoming req see
system.mem_ctrls1.rdQLenPdf::15                     0                       # What read queue length does an incoming req see
system.mem_ctrls1.rdQLenPdf::16                     0                       # What read queue length does an incoming req see
system.mem_ctrls1.rdQLenPdf::17                     0                       # What read queue length does an incoming req see
system.mem_ctrls1.rdQLenPdf::18                     0                       # What read queue length does an incoming req see
system.mem_ctrls1.rdQLenPdf::19                     0                       # What read queue length does an incoming req see
system.mem_ctrls1.rdQLenPdf::20                     0                       # What read queue length does an incoming req see
system.mem_ctrls1.rdQLenPdf::21                     0                       # What read queue length does an incoming req see
system.mem_ctrls1.rdQLenPdf::22                     0                       # What read queue length does an incoming req see
system.mem_ctrls1.rdQLenPdf::23                     0                       # What read queue length does an incoming req see
system.mem_ctrls1.rdQLenPdf::24                     0                       # What read queue length does an incoming req see
system.mem_ctrls1.rdQLenPdf::25                     0                       # What read queue length does an incoming req see
system.mem_ctrls1.rdQLenPdf::26                     0                       # What read queue length does an incoming req see
system.mem_ctrls1.rdQLenPdf::27                     0                       # What read queue length does an incoming req see
system.mem_ctrls1.rdQLenPdf::28                     0                       # What read queue length does an incoming req see
system.mem_ctrls1.rdQLenPdf::29                     0                       # What read queue length does an incoming req see
system.mem_ctrls1.rdQLenPdf::30                     0                       # What read queue length does an incoming req see
system.mem_ctrls1.rdQLenPdf::31                     0                       # What read queue length does an incoming req see
system.mem_ctrls1.wrQLenPdf::0                      2                       # What write queue length does an incoming req see
system.mem_ctrls1.wrQLenPdf::1                      2                       # What write queue length does an incoming req see
system.mem_ctrls1.wrQLenPdf::2                      2                       # What write queue length does an incoming req see
system.mem_ctrls1.wrQLenPdf::3                      2                       # What write queue length does an incoming req see
system.mem_ctrls1.wrQLenPdf::4                      2                       # What write queue length does an incoming req see
system.mem_ctrls1.wrQLenPdf::5                      2                       # What write queue length does an incoming req see
system.mem_ctrls1.wrQLenPdf::6                      2                       # What write queue length does an incoming req see
system.mem_ctrls1.wrQLenPdf::7                      2                       # What write queue length does an incoming req see
system.mem_ctrls1.wrQLenPdf::8                      2                       # What write queue length does an incoming req see
system.mem_ctrls1.wrQLenPdf::9                      2                       # What write queue length does an incoming req see
system.mem_ctrls1.wrQLenPdf::10                     2                       # What write queue length does an incoming req see
system.mem_ctrls1.wrQLenPdf::11                     2                       # What write queue length does an incoming req see
system.mem_ctrls1.wrQLenPdf::12                     2                       # What write queue length does an incoming req see
system.mem_ctrls1.wrQLenPdf::13                     2                       # What write queue length does an incoming req see
system.mem_ctrls1.wrQLenPdf::14                     2                       # What write queue length does an incoming req see
system.mem_ctrls1.wrQLenPdf::15                  4420                       # What write queue length does an incoming req see
system.mem_ctrls1.wrQLenPdf::16                  4499                       # What write queue length does an incoming req see
system.mem_ctrls1.wrQLenPdf::17                  5171                       # What write queue length does an incoming req see
system.mem_ctrls1.wrQLenPdf::18                  5236                       # What write queue length does an incoming req see
system.mem_ctrls1.wrQLenPdf::19                  5248                       # What write queue length does an incoming req see
system.mem_ctrls1.wrQLenPdf::20                  5246                       # What write queue length does an incoming req see
system.mem_ctrls1.wrQLenPdf::21                  5250                       # What write queue length does an incoming req see
system.mem_ctrls1.wrQLenPdf::22                  5255                       # What write queue length does an incoming req see
system.mem_ctrls1.wrQLenPdf::23                  5263                       # What write queue length does an incoming req see
system.mem_ctrls1.wrQLenPdf::24                  5250                       # What write queue length does an incoming req see
system.mem_ctrls1.wrQLenPdf::25                  5234                       # What write queue length does an incoming req see
system.mem_ctrls1.wrQLenPdf::26                  5245                       # What write queue length does an incoming req see
system.mem_ctrls1.wrQLenPdf::27                  5252                       # What write queue length does an incoming req see
system.mem_ctrls1.wrQLenPdf::28                  5248                       # What write queue length does an incoming req see
system.mem_ctrls1.wrQLenPdf::29                  5228                       # What write queue length does an incoming req see
system.mem_ctrls1.wrQLenPdf::30                  5237                       # What write queue length does an incoming req see
system.mem_ctrls1.wrQLenPdf::31                  5219                       # What write queue length does an incoming req see
system.mem_ctrls1.wrQLenPdf::32                  5219                       # What write queue length does an incoming req see
system.mem_ctrls1.wrQLenPdf::33                    92                       # What write queue length does an incoming req see
system.mem_ctrls1.wrQLenPdf::34                    15                       # What write queue length does an incoming req see
system.mem_ctrls1.wrQLenPdf::35                     5                       # What write queue length does an incoming req see
system.mem_ctrls1.wrQLenPdf::36                     2                       # What write queue length does an incoming req see
system.mem_ctrls1.wrQLenPdf::37                     1                       # What write queue length does an incoming req see
system.mem_ctrls1.wrQLenPdf::38                     0                       # What write queue length does an incoming req see
system.mem_ctrls1.wrQLenPdf::39                     0                       # What write queue length does an incoming req see
system.mem_ctrls1.wrQLenPdf::40                     0                       # What write queue length does an incoming req see
system.mem_ctrls1.wrQLenPdf::41                     0                       # What write queue length does an incoming req see
system.mem_ctrls1.wrQLenPdf::42                     0                       # What write queue length does an incoming req see
system.mem_ctrls1.wrQLenPdf::43                     0                       # What write queue length does an incoming req see
system.mem_ctrls1.wrQLenPdf::44                     0                       # What write queue length does an incoming req see
system.mem_ctrls1.wrQLenPdf::45                     0                       # What write queue length does an incoming req see
system.mem_ctrls1.wrQLenPdf::46                     0                       # What write queue length does an incoming req see
system.mem_ctrls1.wrQLenPdf::47                     0                       # What write queue length does an incoming req see
system.mem_ctrls1.wrQLenPdf::48                     0                       # What write queue length does an incoming req see
system.mem_ctrls1.wrQLenPdf::49                     0                       # What write queue length does an incoming req see
system.mem_ctrls1.wrQLenPdf::50                     0                       # What write queue length does an incoming req see
system.mem_ctrls1.wrQLenPdf::51                     0                       # What write queue length does an incoming req see
system.mem_ctrls1.wrQLenPdf::52                     0                       # What write queue length does an incoming req see
system.mem_ctrls1.wrQLenPdf::53                     0                       # What write queue length does an incoming req see
system.mem_ctrls1.wrQLenPdf::54                     0                       # What write queue length does an incoming req see
system.mem_ctrls1.wrQLenPdf::55                     0                       # What write queue length does an incoming req see
system.mem_ctrls1.wrQLenPdf::56                     0                       # What write queue length does an incoming req see
system.mem_ctrls1.wrQLenPdf::57                     0                       # What write queue length does an incoming req see
system.mem_ctrls1.wrQLenPdf::58                     0                       # What write queue length does an incoming req see
system.mem_ctrls1.wrQLenPdf::59                     0                       # What write queue length does an incoming req see
system.mem_ctrls1.wrQLenPdf::60                     0                       # What write queue length does an incoming req see
system.mem_ctrls1.wrQLenPdf::61                     0                       # What write queue length does an incoming req see
system.mem_ctrls1.wrQLenPdf::62                     0                       # What write queue length does an incoming req see
system.mem_ctrls1.wrQLenPdf::63                     0                       # What write queue length does an incoming req see
system.mem_ctrls1.bytesPerActivate::samples       213360                       # Bytes accessed per row activation
system.mem_ctrls1.bytesPerActivate::mean    72.745107                       # Bytes accessed per row activation
system.mem_ctrls1.bytesPerActivate::gmean    68.239088                       # Bytes accessed per row activation
system.mem_ctrls1.bytesPerActivate::stdev    53.302433                       # Bytes accessed per row activation
system.mem_ctrls1.bytesPerActivate::0-127       198441     93.01%     93.01% # Bytes accessed per row activation
system.mem_ctrls1.bytesPerActivate::128-255        12800      6.00%     99.01% # Bytes accessed per row activation
system.mem_ctrls1.bytesPerActivate::256-383          829      0.39%     99.40% # Bytes accessed per row activation
system.mem_ctrls1.bytesPerActivate::384-511          340      0.16%     99.55% # Bytes accessed per row activation
system.mem_ctrls1.bytesPerActivate::512-639          236      0.11%     99.67% # Bytes accessed per row activation
system.mem_ctrls1.bytesPerActivate::640-767          280      0.13%     99.80% # Bytes accessed per row activation
system.mem_ctrls1.bytesPerActivate::768-895          168      0.08%     99.88% # Bytes accessed per row activation
system.mem_ctrls1.bytesPerActivate::896-1023          102      0.05%     99.92% # Bytes accessed per row activation
system.mem_ctrls1.bytesPerActivate::1024-1151          164      0.08%    100.00% # Bytes accessed per row activation
system.mem_ctrls1.bytesPerActivate::total       213360                       # Bytes accessed per row activation
system.mem_ctrls1.rdPerTurnAround::samples         5218                       # Reads before turning the bus around for writes
system.mem_ctrls1.rdPerTurnAround::mean     28.684170                       # Reads before turning the bus around for writes
system.mem_ctrls1.rdPerTurnAround::stdev   358.630490                       # Reads before turning the bus around for writes
system.mem_ctrls1.rdPerTurnAround::0-1023         5217     99.98%     99.98% # Reads before turning the bus around for writes
system.mem_ctrls1.rdPerTurnAround::25600-26623            1      0.02%    100.00% # Reads before turning the bus around for writes
system.mem_ctrls1.rdPerTurnAround::total         5218                       # Reads before turning the bus around for writes
system.mem_ctrls1.wrPerTurnAround::samples         5218                       # Writes before turning the bus around for reads
system.mem_ctrls1.wrPerTurnAround::mean     17.792258                       # Writes before turning the bus around for reads
system.mem_ctrls1.wrPerTurnAround::gmean    17.772661                       # Writes before turning the bus around for reads
system.mem_ctrls1.wrPerTurnAround::stdev     0.827782                       # Writes before turning the bus around for reads
system.mem_ctrls1.wrPerTurnAround::16             736     14.11%     14.11% # Writes before turning the bus around for reads
system.mem_ctrls1.wrPerTurnAround::17              54      1.03%     15.14% # Writes before turning the bus around for reads
system.mem_ctrls1.wrPerTurnAround::18            4074     78.08%     93.22% # Writes before turning the bus around for reads
system.mem_ctrls1.wrPerTurnAround::19             302      5.79%     99.00% # Writes before turning the bus around for reads
system.mem_ctrls1.wrPerTurnAround::20              37      0.71%     99.71% # Writes before turning the bus around for reads
system.mem_ctrls1.wrPerTurnAround::21               7      0.13%     99.85% # Writes before turning the bus around for reads
system.mem_ctrls1.wrPerTurnAround::22               2      0.04%     99.89% # Writes before turning the bus around for reads
system.mem_ctrls1.wrPerTurnAround::23               4      0.08%     99.96% # Writes before turning the bus around for reads
system.mem_ctrls1.wrPerTurnAround::24               1      0.02%     99.98% # Writes before turning the bus around for reads
system.mem_ctrls1.wrPerTurnAround::29               1      0.02%    100.00% # Writes before turning the bus around for reads
system.mem_ctrls1.wrPerTurnAround::total         5218                       # Writes before turning the bus around for reads
system.mem_ctrls1.totQLat                 28278424139                       # Total ticks spent queuing
system.mem_ctrls1.totMemAccLat            31084811639                       # Total ticks spent from burst creation until serviced by the DRAM
system.mem_ctrls1.totBusLat                 748370000                       # Total ticks spent in databus transfers
system.mem_ctrls1.avgQLat                   188933.44                       # Average queueing delay per DRAM burst
system.mem_ctrls1.avgBusLat                   5000.00                       # Average bus latency per DRAM burst
system.mem_ctrls1.avgMemAccLat              207683.44                       # Average memory access latency per DRAM burst
system.mem_ctrls1.avgRdBW                        8.29                       # Average DRAM read bandwidth in MiByte/s
system.mem_ctrls1.avgWrBW                        5.14                       # Average achieved write bandwidth in MiByte/s
system.mem_ctrls1.avgRdBWSys                     8.30                       # Average system read bandwidth in MiByte/s
system.mem_ctrls1.avgWrBWSys                     5.15                       # Average system write bandwidth in MiByte/s
system.mem_ctrls1.peakBW                     12800.00                       # Theoretical peak bandwidth in MiByte/s
system.mem_ctrls1.busUtil                        0.10                       # Data bus utilization in percentage
system.mem_ctrls1.busUtilRead                    0.06                       # Data bus utilization in percentage for reads
system.mem_ctrls1.busUtilWrite                   0.04                       # Data bus utilization in percentage for writes
system.mem_ctrls1.avgRdQLen                      1.00                       # Average read queue length when enqueuing
system.mem_ctrls1.avgWrQLen                     20.88                       # Average write queue length when enqueuing
system.mem_ctrls1.readRowHits                   20105                       # Number of row buffer hits during reads
system.mem_ctrls1.writeRowHits                   9049                       # Number of row buffer hits during writes
system.mem_ctrls1.readRowHitRate                13.43                       # Row buffer hit rate for reads
system.mem_ctrls1.writeRowHitRate                9.74                       # Row buffer hit rate for writes
system.mem_ctrls1.avgGap                   4760225.29                       # Average gap between requests
system.mem_ctrls1.pageHitRate                   12.02                       # Row buffer hit rate, read and write combined
system.mem_ctrls1_0.actEnergy               766893120                       # Energy for activate commands per rank (pJ)
system.mem_ctrls1_0.preEnergy               407613360                       # Energy for precharge commands per rank (pJ)
system.mem_ctrls1_0.readEnergy              536378220                       # Energy for read commands per rank (pJ)
system.mem_ctrls1_0.writeEnergy             243721800                       # Energy for write commands per rank (pJ)
system.mem_ctrls1_0.refreshEnergy        59650197360.000015                       # Energy for refresh commands per rank (pJ)
system.mem_ctrls1_0.actBackEnergy         20630626170                       # Energy for active background per rank (pJ)
system.mem_ctrls1_0.preBackEnergy          3489086880                       # Energy for precharge background per rank (pJ)
system.mem_ctrls1_0.actPowerDownEnergy   118279301790                       # Energy for active power-down per rank (pJ)
system.mem_ctrls1_0.prePowerDownEnergy    98951190720                       # Energy for precharge power-down per rank (pJ)
system.mem_ctrls1_0.selfRefreshEnergy    154093227945                       # Energy for self refresh per rank (pJ)
system.mem_ctrls1_0.totalEnergy          457077062445                       # Total energy per rank (pJ)
system.mem_ctrls1_0.averagePower           395.755411                       # Core power per rank (mW)
system.mem_ctrls1_0.totalIdleTime        1100539663277                       # Total Idle time Per DRAM Rank
system.mem_ctrls1_0.memoryStateTime::IDLE   6992771228                       # Time in different power states
system.mem_ctrls1_0.memoryStateTime::REF  25387954000                       # Time in different power states
system.mem_ctrls1_0.memoryStateTime::SREF 583485650304                       # Time in different power states
system.mem_ctrls1_0.memoryStateTime::PRE_PDN 257685542023                       # Time in different power states
system.mem_ctrls1_0.memoryStateTime::ACT  22011816581                       # Time in different power states
system.mem_ctrls1_0.memoryStateTime::ACT_PDN 259384607418                       # Time in different power states
system.mem_ctrls1_1.actEnergy               756497280                       # Energy for activate commands per rank (pJ)
system.mem_ctrls1_1.preEnergy               402087840                       # Energy for precharge commands per rank (pJ)
system.mem_ctrls1_1.readEnergy              532294140                       # Energy for read commands per rank (pJ)
system.mem_ctrls1_1.writeEnergy             240903000                       # Energy for write commands per rank (pJ)
system.mem_ctrls1_1.refreshEnergy        59444907600.000015                       # Energy for refresh commands per rank (pJ)
system.mem_ctrls1_1.actBackEnergy         20480239080                       # Energy for active background per rank (pJ)
system.mem_ctrls1_1.preBackEnergy          3486907680                       # Energy for precharge background per rank (pJ)
system.mem_ctrls1_1.actPowerDownEnergy   117169739790                       # Energy for active power-down per rank (pJ)
system.mem_ctrls1_1.prePowerDownEnergy    98884385760                       # Energy for precharge power-down per rank (pJ)
system.mem_ctrls1_1.selfRefreshEnergy    154826422650                       # Energy for self refresh per rank (pJ)
system.mem_ctrls1_1.totalEnergy          456257076510                       # Total energy per rank (pJ)
system.mem_ctrls1_1.averagePower           395.045438                       # Core power per rank (mW)
system.mem_ctrls1_1.totalIdleTime        1100871702995                       # Total Idle time Per DRAM Rank
system.mem_ctrls1_1.memoryStateTime::IDLE   7004689656                       # Time in different power states
system.mem_ctrls1_1.memoryStateTime::REF  25301294000                       # Time in different power states
system.mem_ctrls1_1.memoryStateTime::SREF 586419769304                       # Time in different power states
system.mem_ctrls1_1.memoryStateTime::PRE_PDN 257511433141                       # Time in different power states
system.mem_ctrls1_1.memoryStateTime::ACT  21759959831                       # Time in different power states
system.mem_ctrls1_1.memoryStateTime::ACT_PDN 256951195622                       # Time in different power states
system.pwrStateResidencyTicks::UNDEFINED 18808289732484                       # Cumulative time (in ticks) in various power states
system.cpu.branchPred.lookups                       3                       # Number of BP lookups
system.cpu.branchPred.condPredicted                 1                       # Number of conditional branches predicted
system.cpu.branchPred.condIncorrect                 1                       # Number of conditional branches incorrect
system.cpu.branchPred.BTBLookups                    2                       # Number of BTB lookups
system.cpu.branchPred.BTBHits                       0                       # Number of BTB hits
system.cpu.branchPred.BTBCorrect                    0                       # Number of correct BTB predictions (this stat may not work properly.
system.cpu.branchPred.BTBHitPct              0.000000                       # BTB Hit Percentage
system.cpu.branchPred.usedRAS                       0                       # Number of times the RAS was used to get a target.
system.cpu.branchPred.RASInCorrect                  0                       # Number of incorrect RAS predictions.
system.cpu.branchPred.indirectLookups               0                       # Number of indirect predictor lookups.
system.cpu.branchPred.indirectHits                  0                       # Number of indirect target hits.
system.cpu.branchPred.indirectMisses                0                       # Number of indirect misses.
system.cpu.branchPredindirectMispredicted            0                       # Number of mispredicted indirect branches.
system.cpu_voltage_domain.voltage                   1                       # Voltage in Volts
system.cpu_clk_domain.clock                       333                       # Clock period in ticks
system.cpu.dtb.fetch_hits                           0                       # ITB hits
system.cpu.dtb.fetch_misses                         0                       # ITB misses
system.cpu.dtb.fetch_acv                            0                       # ITB acv
system.cpu.dtb.fetch_accesses                       0                       # ITB accesses
system.cpu.dtb.read_hits                            3                       # DTB read hits
system.cpu.dtb.read_misses                          0                       # DTB read misses
system.cpu.dtb.read_acv                             0                       # DTB read access violations
system.cpu.dtb.read_accesses                        3                       # DTB read accesses
system.cpu.dtb.write_hits                          11                       # DTB write hits
system.cpu.dtb.write_misses                         0                       # DTB write misses
system.cpu.dtb.write_acv                            0                       # DTB write access violations
system.cpu.dtb.write_accesses                      11                       # DTB write accesses
system.cpu.dtb.data_hits                           14                       # DTB hits
system.cpu.dtb.data_misses                          0                       # DTB misses
system.cpu.dtb.data_acv                             0                       # DTB access violations
system.cpu.dtb.data_accesses                       14                       # DTB accesses
system.cpu.itb.fetch_hits                           6                       # ITB hits
system.cpu.itb.fetch_misses                         0                       # ITB misses
system.cpu.itb.fetch_acv                            0                       # ITB acv
system.cpu.itb.fetch_accesses                       6                       # ITB accesses
system.cpu.itb.read_hits                            0                       # DTB read hits
system.cpu.itb.read_misses                          0                       # DTB read misses
system.cpu.itb.read_acv                             0                       # DTB read access violations
system.cpu.itb.read_accesses                        0                       # DTB read accesses
system.cpu.itb.write_hits                           0                       # DTB write hits
system.cpu.itb.write_misses                         0                       # DTB write misses
system.cpu.itb.write_acv                            0                       # DTB write access violations
system.cpu.itb.write_accesses                       0                       # DTB write accesses
system.cpu.itb.data_hits                            0                       # DTB hits
system.cpu.itb.data_misses                          0                       # DTB misses
system.cpu.itb.data_acv                             0                       # DTB access violations
system.cpu.itb.data_accesses                        0                       # DTB accesses
system.cpu.workload.num_syscalls                    0                       # Number of system calls
system.cpu.pwrStateResidencyTicks::ON    1154948341554                       # Cumulative time (in ticks) in various power states
system.cpu.numCycles                             1491                       # number of cpu cycles simulated
system.cpu.numWorkItemsStarted                      0                       # number of work items this cpu started
system.cpu.numWorkItemsCompleted                    0                       # number of work items this cpu completed
system.cpu.fetch.icacheStallCycles                 63                       # Number of cycles fetch is stalled on an Icache miss
system.cpu.fetch.Insts                             31                       # Number of instructions fetch has processed
system.cpu.fetch.Branches                           3                       # Number of branches that fetch encountered
system.cpu.fetch.Cycles                             5                       # Number of cycles fetch has run and was not squashing or blocked
system.cpu.fetch.SquashCycles                       5                       # Number of cycles fetch has spent squashing
system.cpu.fetch.PendingDrainCycles                 8                       # Number of cycles fetch has spent waiting on pipes to drain
system.cpu.fetch.CacheLines                         6                       # Number of cache lines fetched
system.cpu.fetch.IcacheSquashes                     3                       # Number of outstanding Icache misses that were squashed
system.cpu.fetch.rateDist::samples                 78                       # Number of instructions fetched each cycle (Total)
system.cpu.fetch.rateDist::mean              0.397436                       # Number of instructions fetched each cycle (Total)
system.cpu.fetch.rateDist::stdev             1.646245                       # Number of instructions fetched each cycle (Total)
system.cpu.fetch.rateDist::underflows               0      0.00%      0.00% # Number of instructions fetched each cycle (Total)
system.cpu.fetch.rateDist::0                       73     93.59%     93.59% # Number of instructions fetched each cycle (Total)
system.cpu.fetch.rateDist::1                        0      0.00%     93.59% # Number of instructions fetched each cycle (Total)
system.cpu.fetch.rateDist::2                        1      1.28%     94.87% # Number of instructions fetched each cycle (Total)
system.cpu.fetch.rateDist::3                        0      0.00%     94.87% # Number of instructions fetched each cycle (Total)
system.cpu.fetch.rateDist::4                        0      0.00%     94.87% # Number of instructions fetched each cycle (Total)
system.cpu.fetch.rateDist::5                        1      1.28%     96.15% # Number of instructions fetched each cycle (Total)
system.cpu.fetch.rateDist::6                        0      0.00%     96.15% # Number of instructions fetched each cycle (Total)
system.cpu.fetch.rateDist::7                        0      0.00%     96.15% # Number of instructions fetched each cycle (Total)
[...]
system.switch_cpus_1.iq.int_inst_queue_writes    350662233                       # Number of integer instruction queue writes
system.switch_cpus_1.iq.int_inst_queue_wakeup_accesses    241012377                       # Number of integer instruction queue wakeup accesses
system.switch_cpus_1.iq.fp_inst_queue_reads      4184492                       # Number of floating instruction queue reads
system.switch_cpus_1.iq.fp_inst_queue_writes      2882176                       # Number of floating instruction queue writes
system.switch_cpus_1.iq.fp_inst_queue_wakeup_accesses      1992282                       # Number of floating instruction queue wakeup accesses
system.switch_cpus_1.iq.int_alu_accesses    258530533                       # Number of integer alu accesses
system.switch_cpus_1.iq.fp_alu_accesses       2118575                       # Number of floating point alu accesses
system.switch_cpus_1.iew.lsq.thread0.forwLoads      2613571                       # Number of loads that had data forwarded from stores
system.switch_cpus_1.iew.lsq.thread0.invAddrLoads            0                       # Number of loads ignored due to an invalid address
system.switch_cpus_1.iew.lsq.thread0.squashedLoads     17976064                       # Number of loads squashed
system.switch_cpus_1.iew.lsq.thread0.ignoredResponses        30224                       # Number of memory responses ignored because the instruction is squashed
system.switch_cpus_1.iew.lsq.thread0.memOrderViolation        36476                       # Number of memory ordering violations
system.switch_cpus_1.iew.lsq.thread0.squashedStores      5646574                       # Number of stores squashed
system.switch_cpus_1.iew.lsq.thread0.invAddrSwpfs            0                       # Number of software prefetches ignored due to an invalid address
system.switch_cpus_1.iew.lsq.thread0.blockedLoads            0                       # Number of blocked loads due to partial load-store forwarding
system.switch_cpus_1.iew.lsq.thread0.rescheduledLoads         9695                       # Number of loads that were rescheduled
system.switch_cpus_1.iew.lsq.thread0.cacheBlocked      1537243                       # Number of times an access to memory failed due to the cache being blocked
system.switch_cpus_1.iew.iewIdleCycles              0                       # Number of cycles IEW is idle
system.switch_cpus_1.iew.iewSquashCycles      3789171                       # Number of cycles IEW is squashing
system.switch_cpus_1.iew.iewBlockCycles      13275744                       # Number of cycles IEW is blocking
system.switch_cpus_1.iew.iewUnblockCycles      3486958                       # Number of cycles IEW is unblocking
system.switch_cpus_1.iew.iewDispatchedInsts    283605545                       # Number of instructions dispatched to IQ
system.switch_cpus_1.iew.iewDispSquashedInsts      1401023                       # Number of squashed instructions skipped by dispatch
system.switch_cpus_1.iew.iewDispLoadInsts     62097818                       # Number of dispatched load instructions
system.switch_cpus_1.iew.iewDispStoreInsts     27946419                       # Number of dispatched store instructions
system.switch_cpus_1.iew.iewDispNonSpecInsts          177                       # Number of dispatched non-speculative instructions
system.switch_cpus_1.iew.iewIQFullEvents        26851                       # Number of times the IQ has become full, causing a stall
system.switch_cpus_1.iew.iewLSQFullEvents      3412473                       # Number of times the LSQ has become full, causing a stall
system.switch_cpus_1.iew.memOrderViolationEvents        36476                       # Number of memory order violations
system.switch_cpus_1.iew.predictedTakenIncorrect      2207100                       # Number of branches that were predicted taken incorrectly
system.switch_cpus_1.iew.predictedNotTakenIncorrect      1998104                       # Number of branches that were predicted not taken incorrectly
system.switch_cpus_1.iew.branchMispredicts      4205204                       # Number of branch mispredicts detected at execute
system.switch_cpus_1.iew.iewExecutedInsts    249114187                       # Number of executed instructions
system.switch_cpus_1.iew.iewExecLoadInsts     57909105                       # Number of load instructions executed
system.switch_cpus_1.iew.iewExecSquashedInsts      6202188                       # Number of squashed instructions skipped in execute
system.switch_cpus_1.iew.exec_swp                   0                       # number of swp insts executed
system.switch_cpus_1.iew.exec_nop             6850172                       # number of nop insts executed
system.switch_cpus_1.iew.exec_refs           83130029                       # number of memory reference insts executed
system.switch_cpus_1.iew.exec_branches       36346729                       # Number of branches executed
system.switch_cpus_1.iew.exec_stores         25220924                       # Number of stores executed
system.switch_cpus_1.iew.exec_rate           1.283172                       # Inst execution rate
system.switch_cpus_1.iew.wb_sent            244628423                       # cumulative count of insts sent to commit
system.switch_cpus_1.iew.wb_count           243004659                       # cumulative count of insts written-back
system.switch_cpus_1.iew.wb_producers       136939070                       # num instructions producing a value
system.switch_cpus_1.iew.wb_consumers       173265683                       # num instructions consuming a value
system.switch_cpus_1.iew.wb_rate             1.251702                       # insts written-back per cycle
system.switch_cpus_1.iew.wb_fanout           0.790342                       # average fanout of values written-back
system.switch_cpus_1.commit.commitSquashedInsts     77285978                       # The number of squashed insts skipped by commit
system.switch_cpus_1.commit.commitNonSpecStalls          176                       # The number of times commit has been forced to stall to communicate backwards
system.switch_cpus_1.commit.branchMispredicts      3694648                       # The number of times a branch was mispredicted
system.switch_cpus_1.commit.committed_per_cycle::samples    168797716                       # Number of insts commited each cycle
system.switch_cpus_1.commit.committed_per_cycle::mean     1.216563                       # Number of insts commited each cycle
system.switch_cpus_1.commit.committed_per_cycle::stdev     2.305764                       # Number of insts commited each cycle
system.switch_cpus_1.commit.committed_per_cycle::underflows            0      0.00%      0.00% # Number of insts commited each cycle
system.switch_cpus_1.commit.committed_per_cycle::0    107604945     63.75%     63.75% # Number of insts commited each cycle
system.switch_cpus_1.commit.committed_per_cycle::1     25356425     15.02%     78.77% # Number of insts commited each cycle
system.switch_cpus_1.commit.committed_per_cycle::2      8742795      5.18%     83.95% # Number of insts commited each cycle
system.switch_cpus_1.commit.committed_per_cycle::3      5225479      3.10%     87.04% # Number of insts commited each cycle
system.switch_cpus_1.commit.committed_per_cycle::4      3419032      2.03%     89.07% # Number of insts commited each cycle
system.switch_cpus_1.commit.committed_per_cycle::5      2721772      1.61%     90.68% # Number of insts commited each cycle
system.switch_cpus_1.commit.committed_per_cycle::6      2311251      1.37%     92.05% # Number of insts commited each cycle
system.switch_cpus_1.commit.committed_per_cycle::7      1645975      0.98%     93.03% # Number of insts commited each cycle
system.switch_cpus_1.commit.committed_per_cycle::8     11770042      6.97%    100.00% # Number of insts commited each cycle
system.switch_cpus_1.commit.committed_per_cycle::overflows            0      0.00%    100.00% # Number of insts commited each cycle
system.switch_cpus_1.commit.committed_per_cycle::min_value            0                       # Number of insts commited each cycle
system.switch_cpus_1.commit.committed_per_cycle::max_value            8                       # Number of insts commited each cycle
system.switch_cpus_1.commit.committed_per_cycle::total    168797716                       # Number of insts commited each cycle
system.switch_cpus_1.commit.committedInsts    205353107                       # Number of instructions committed
system.switch_cpus_1.commit.committedOps    205353107                       # Number of ops (including micro ops) committed
system.switch_cpus_1.commit.swp_count               0                       # Number of s/w prefetches committed
system.switch_cpus_1.commit.refs             66421579                       # Number of memory references committed
system.switch_cpus_1.commit.loads            44121734                       # Number of loads committed
system.switch_cpus_1.commit.membars                88                       # Number of memory barriers committed
system.switch_cpus_1.commit.branches         30359423                       # Number of branches committed
system.switch_cpus_1.commit.fp_insts          1786208                       # Number of committed floating point instructions.
system.switch_cpus_1.commit.int_insts       197426184                       # Number of committed integer instructions.
system.switch_cpus_1.commit.function_calls      1752736                       # Number of function calls committed.
system.switch_cpus_1.commit.op_class_0::No_OpClass      5447375      2.65%      2.65% # Class of committed instruction
system.switch_cpus_1.commit.op_class_0::IntAlu    132113930     64.34%     66.99% # Class of committed instruction
system.switch_cpus_1.commit.op_class_0::IntMult        79596      0.04%     67.03% # Class of committed instruction
system.switch_cpus_1.commit.op_class_0::IntDiv            0      0.00%     67.03% # Class of committed instruction
system.switch_cpus_1.commit.op_class_0::FloatAdd       635244      0.31%     67.34% # Class of committed instruction
system.switch_cpus_1.commit.op_class_0::FloatCmp       335099      0.16%     67.50% # Class of committed instruction
system.switch_cpus_1.commit.op_class_0::FloatCvt       272825      0.13%     67.63% # Class of committed instruction
system.switch_cpus_1.commit.op_class_0::FloatMult            0      0.00%     67.63% # Class of committed instruction
system.switch_cpus_1.commit.op_class_0::FloatMultAcc            0      0.00%     67.63% # Class of committed instruction
system.switch_cpus_1.commit.op_class_0::FloatDiv        47371      0.02%     67.65% # Class of committed instruction
system.switch_cpus_1.commit.op_class_0::FloatMisc            0      0.00%     67.65% # Class of committed instruction
system.switch_cpus_1.commit.op_class_0::FloatSqrt            0      0.00%     67.65% # Class of committed instruction
system.switch_cpus_1.commit.op_class_0::SimdAdd            0      0.00%     67.65% # Class of committed instruction
system.switch_cpus_1.commit.op_class_0::SimdAddAcc            0      0.00%     67.65% # Class of committed instruction
system.switch_cpus_1.commit.op_class_0::SimdAlu            0      0.00%     67.65% # Class of committed instruction
system.switch_cpus_1.commit.op_class_0::SimdCmp            0      0.00%     67.65% # Class of committed instruction
system.switch_cpus_1.commit.op_class_0::SimdCvt            0      0.00%     67.65% # Class of committed instruction
system.switch_cpus_1.commit.op_class_0::SimdMisc            0      0.00%     67.65% # Class of committed instruction
system.switch_cpus_1.commit.op_class_0::SimdMult            0      0.00%     67.65% # Class of committed instruction
system.switch_cpus_1.commit.op_class_0::SimdMultAcc            0      0.00%     67.65% # Class of committed instruction
system.switch_cpus_1.commit.op_class_0::SimdShift            0      0.00%     67.65% # Class of committed instruction
system.switch_cpus_1.commit.op_class_0::SimdShiftAcc            0      0.00%     67.65% # Class of committed instruction
system.switch_cpus_1.commit.op_class_0::SimdSqrt            0      0.00%     67.65% # Class of committed instruction
system.switch_cpus_1.commit.op_class_0::SimdFloatAdd            0      0.00%     67.65% # Class of committed instruction
system.switch_cpus_1.commit.op_class_0::SimdFloatAlu            0      0.00%     67.65% # Class of committed instruction
system.switch_cpus_1.commit.op_class_0::SimdFloatCmp            0      0.00%     67.65% # Class of committed instruction
system.switch_cpus_1.commit.op_class_0::SimdFloatCvt            0      0.00%     67.65% # Class of committed instruction
system.switch_cpus_1.commit.op_class_0::SimdFloatDiv            0      0.00%     67.65% # Class of committed instruction
system.switch_cpus_1.commit.op_class_0::SimdFloatMisc            0      0.00%     67.65% # Class of committed instruction
system.switch_cpus_1.commit.op_class_0::SimdFloatMult            0      0.00%     67.65% # Class of committed instruction
system.switch_cpus_1.commit.op_class_0::SimdFloatMultAcc            0      0.00%     67.65% # Class of committed instruction
system.switch_cpus_1.commit.op_class_0::SimdFloatSqrt            0      0.00%     67.65% # Class of committed instruction
system.switch_cpus_1.commit.op_class_0::MemRead     43815278     21.34%     88.99% # Class of committed instruction
system.switch_cpus_1.commit.op_class_0::MemWrite     22110720     10.77%     99.76% # Class of committed instruction
system.switch_cpus_1.commit.op_class_0::FloatMemRead       306544      0.15%     99.91% # Class of committed instruction
system.switch_cpus_1.commit.op_class_0::FloatMemWrite       189125      0.09%    100.00% # Class of committed instruction
system.switch_cpus_1.commit.op_class_0::IprAccess            0      0.00%    100.00% # Class of committed instruction
system.switch_cpus_1.commit.op_class_0::InstPrefetch            0      0.00%    100.00% # Class of committed instruction
system.switch_cpus_1.commit.op_class_0::total    205353107                       # Class of committed instruction
system.switch_cpus_1.commit.bw_lim_events     11770042                       # number cycles where commit BW limit reached
system.switch_cpus_1.rob.rob_reads          438776272                       # The number of ROB reads
system.switch_cpus_1.rob.rob_writes         577254792                       # The number of ROB writes
system.switch_cpus_1.timesIdled               1025636                       # Number of times that the entire CPU went into an idle state and unscheduled itself
system.switch_cpus_1.idleCycles              13450360                       # Total number of cycles that the CPU has spent unscheduled due to idling
system.switch_cpus_1.committedInsts         200000006                       # Number of Instructions Simulated
system.switch_cpus_1.committedOps           200000006                       # Number of Ops (including micro ops) Simulated
system.switch_cpus_1.cpi                     0.970697                       # CPI: Cycles Per Instruction
system.switch_cpus_1.cpi_total               0.970697                       # CPI: Total CPI of All Threads
system.switch_cpus_1.ipc                     1.030188                       # IPC: Instructions Per Cycle
system.switch_cpus_1.ipc_total               1.030188                       # IPC: Total IPC of All Threads
system.switch_cpus_1.int_regfile_reads      334173182                       # number of integer regfile reads
system.switch_cpus_1.int_regfile_writes     183429968                       # number of integer regfile writes
system.switch_cpus_1.fp_regfile_reads         2123606                       # number of floating regfile reads
system.switch_cpus_1.fp_regfile_writes        1274882                       # number of floating regfile writes
system.switch_cpus_1.misc_regfile_reads         94472                       # number of misc regfile reads
system.switch_cpus_1.misc_regfile_writes        47313                       # number of misc regfile writes
system.tol3bus.snoop_filter.tot_requests      2929234                       # Total number of requests made to the snoop filter.
system.tol3bus.snoop_filter.hit_single_requests      1462578                       # Number of requests hitting in the snoop filter with a single holder of the requested data.
system.tol3bus.snoop_filter.hit_multi_requests            0                       # Number of requests hitting in the snoop filter with multiple (>1) holders of the requested data.
system.tol3bus.snoop_filter.tot_snoops           1078                       # Total number of snoops made to the snoop filter.
system.tol3bus.snoop_filter.hit_single_snoops         1078                       # Number of snoops hitting in the snoop filter with a single holder of the requested data.
system.tol3bus.snoop_filter.hit_multi_snoops            0                       # Number of snoops hitting in the snoop filter with multiple (>1) holders of the requested data.
system.tol3bus.pwrStateResidencyTicks::UNDEFINED 18808289732484                       # Cumulative time (in ticks) in various power states
system.tol3bus.trans_dist::ReadResp           1040839                       # Transaction distribution
system.tol3bus.trans_dist::WritebackDirty      1015794                       # Transaction distribution
system.tol3bus.trans_dist::CleanEvict          680514                       # Transaction distribution
system.tol3bus.trans_dist::ReadExReq           425817                       # Transaction distribution
system.tol3bus.trans_dist::ReadExResp          425817                       # Transaction distribution
system.tol3bus.trans_dist::ReadSharedReq      1040839                       # Transaction distribution
system.tol3bus.pkt_count_system.cpu.l2.mem_side::system.l3.cpu_side      4395890                       # Packet count per connected master and slave (bytes)
system.tol3bus.pkt_size_system.cpu.l2.mem_side::system.l3.cpu_side    146999616                       # Cumulative packet size per connected master and slave (bytes)
system.tol3bus.snoops                          233730                       # Total snoops (count)
system.tol3bus.snoopTraffic                  11877184                       # Total snoop traffic (bytes)
system.tol3bus.snoop_fanout::samples          1700386                       # Request fanout histogram
system.tol3bus.snoop_fanout::mean            0.000634                       # Request fanout histogram
system.tol3bus.snoop_fanout::stdev           0.025171                       # Request fanout histogram
system.tol3bus.snoop_fanout::underflows             0      0.00%      0.00% # Request fanout histogram
system.tol3bus.snoop_fanout::0                1699308     99.94%     99.94% # Request fanout histogram
system.tol3bus.snoop_fanout::1                   1078      0.06%    100.00% # Request fanout histogram
system.tol3bus.snoop_fanout::overflows              0      0.00%    100.00% # Request fanout histogram
system.tol3bus.snoop_fanout::min_value              0                       # Request fanout histogram
system.tol3bus.snoop_fanout::max_value              1                       # Request fanout histogram
system.tol3bus.snoop_fanout::total            1700386                       # Request fanout histogram
system.tol3bus.reqLayer0.occupancy         1251895851                       # Layer occupancy (ticks)
system.tol3bus.reqLayer0.utilization              0.1                       # Layer utilization (%)
system.tol3bus.respLayer0.occupancy         976792896                       # Layer occupancy (ticks)
system.tol3bus.respLayer0.utilization             0.1                       # Layer utilization (%)

---------- End Simulation Statistics   ----------
