
---------- Begin Simulation Statistics ----------
sim_seconds                                  6.384362                       # Number of seconds simulated
sim_ticks                                6384362198715                       # Number of ticks simulated
final_tick                               26369463558582                       # Number of ticks from beginning of simulation (restored from checkpoints and never reset)
sim_freq                                 1000000000000                       # Frequency of simulated ticks
host_inst_rate                                 107741                       # Simulator instruction rate (inst/s)
host_op_rate                                   107741                       # Simulator op (including micro ops) rate (op/s)
host_tick_rate                              573213868                       # Simulator tick rate (ticks/s)
host_mem_usage                                2453504                       # Number of bytes of host memory used
host_seconds                                 11137.84                       # Real time elapsed on the host
sim_insts                                  1200000007                       # Number of instructions simulated
sim_ops                                    1200000007                       # Number of ops (including micro ops) simulated
system.voltage_domain.voltage                       1                       # Voltage in Volts
system.clk_domain.clock                          1000                       # Clock period in ticks
system.mem_ctrls0.pwrStateResidencyTicks::UNDEFINED 26369463558582                       # Cumulative time (in ticks) in various power states
system.mem_ctrls0.bytes_read::cpu.inst             64                       # Number of bytes read from this memory
system.mem_ctrls0.bytes_read::cpu.data             64                       # Number of bytes read from this memory
system.mem_ctrls0.bytes_read::switch_cpus.inst         1152                       # Number of bytes read from this memory
system.mem_ctrls0.bytes_read::switch_cpus.data    908360768                       # Number of bytes read from this memory
system.mem_ctrls0.bytes_read::switch_cpus_1.data    185169408                       # Number of bytes read from this memory
system.mem_ctrls0.bytes_read::total        1093531456                       # Number of bytes read from this memory
system.mem_ctrls0.bytes_inst_read::cpu.inst           64                       # Number of instructions bytes read from this memory
system.mem_ctrls0.bytes_inst_read::switch_cpus.inst         1152                       # Number of instructions bytes read from this memory
system.mem_ctrls0.bytes_inst_read::total         1216                       # Number of instructions bytes read from this memory
system.mem_ctrls0.bytes_written::writebacks    786845504                       # Number of bytes written to this memory
system.mem_ctrls0.bytes_written::total      786845504                       # Number of bytes written to this memory
system.mem_ctrls0.num_reads::cpu.inst               1                       # Number of read requests responded to by this memory
system.mem_ctrls0.num_reads::cpu.data               1                       # Number of read requests responded to by this memory
system.mem_ctrls0.num_reads::switch_cpus.inst           18                       # Number of read requests responded to by this memory
system.mem_ctrls0.num_reads::switch_cpus.data     14193137                       # Number of read requests responded to by this memory
system.mem_ctrls0.num_reads::switch_cpus_1.data      2893272                       # Number of read requests responded to by this memory
system.mem_ctrls0.num_reads::total           17086429                       # Number of read requests responded to by this memory
system.mem_ctrls0.num_writes::writebacks     12294461                       # Number of write requests responded to by this memory
system.mem_ctrls0.num_writes::total          12294461                       # Number of write requests responded to by this memory
system.mem_ctrls0.bw_read::cpu.inst                10                       # Total read bandwidth from this memory (bytes/s)
system.mem_ctrls0.bw_read::cpu.data                10                       # Total read bandwidth from this memory (bytes/s)
system.mem_ctrls0.bw_read::switch_cpus.inst          180                       # Total read bandwidth from this memory (bytes/s)
system.mem_ctrls0.bw_read::switch_cpus.data    142279015                       # Total read bandwidth from this memory (bytes/s)
system.mem_ctrls0.bw_read::switch_cpus_1.data     29003588                       # Total read bandwidth from this memory (bytes/s)
system.mem_ctrls0.bw_read::total            171282804                       # Total read bandwidth from this memory (bytes/s)
system.mem_ctrls0.bw_inst_read::cpu.inst           10                       # Instruction read bandwidth from this memory (bytes/s)
system.mem_ctrls0.bw_inst_read::switch_cpus.inst          180                       # Instruction read bandwidth from this memory (bytes/s)
system.mem_ctrls0.bw_inst_read::total             190                       # Instruction read bandwidth from this memory (bytes/s)
system.mem_ctrls0.bw_write::writebacks      123245749                       # Write bandwidth from this memory (bytes/s)
system.mem_ctrls0.bw_write::total           123245749                       # Write bandwidth from this memory (bytes/s)
system.mem_ctrls0.bw_total::writebacks      123245749                       # Total bandwidth to/from this memory (bytes/s)
system.mem_ctrls0.bw_total::cpu.inst               10                       # Total bandwidth to/from this memory (bytes/s)
system.mem_ctrls0.bw_total::cpu.data               10                       # Total bandwidth to/from this memory (bytes/s)
system.mem_ctrls0.bw_total::switch_cpus.inst          180                       # Total bandwidth to/from this memory (bytes/s)
system.mem_ctrls0.bw_total::switch_cpus.data    142279015                       # Total bandwidth to/from this memory (bytes/s)
system.mem_ctrls0.bw_total::switch_cpus_1.data     29003588                       # Total bandwidth to/from this memory (bytes/s)
system.mem_ctrls0.bw_total::total           294528553                       # Total bandwidth to/from this memory (bytes/s)
system.mem_ctrls0.readReqs                   17086430                       # Number of read requests accepted
system.mem_ctrls0.writeReqs                  12294461                       # Number of write requests accepted
system.mem_ctrls0.readBursts                 17086430                       # Number of DRAM read bursts, including those serviced by the write queue
system.mem_ctrls0.writeBursts                12294461                       # Number of DRAM write bursts, including those merged in the write queue
system.mem_ctrls0.bytesReadDRAM            1093531520                       # Total number of bytes read from DRAM
system.mem_ctrls0.bytesReadWrQ                      0                       # Total number of bytes read from write queue
system.mem_ctrls0.bytesWritten              786843712                       # Total number of bytes written to DRAM
system.mem_ctrls0.bytesReadSys             1093531520                       # Total read bytes from the system interface side
system.mem_ctrls0.bytesWrittenSys           786845504                       # Total written bytes from the system interface side
system.mem_ctrls0.servicedByWrQ                     0                       # Number of DRAM read bursts serviced by the write queue
system.mem_ctrls0.mergedWrBursts                    0                       # Number of DRAM write bursts merged with an existing one
system.mem_ctrls0.neitherReadNorWriteReqs            0                       # Number of requests that are neither read nor write
system.mem_ctrls0.perBankRdBursts::0          1067697                       # Per bank write bursts
system.mem_ctrls0.perBankRdBursts::1          1067444                       # Per bank write bursts
system.mem_ctrls0.perBankRdBursts::2          1067707                       # Per bank write bursts
system.mem_ctrls0.perBankRdBursts::3          1067751                       # Per bank write bursts
system.mem_ctrls0.perBankRdBursts::4          1069478                       # Per bank write bursts
system.mem_ctrls0.perBankRdBursts::5          1069545                       # Per bank write bursts
system.mem_ctrls0.perBankRdBursts::6          1068803                       # Per bank write bursts
system.mem_ctrls0.perBankRdBursts::7          1068983                       # Per bank write bursts
system.mem_ctrls0.perBankRdBursts::8          1068580                       # Per bank write bursts
system.mem_ctrls0.perBankRdBursts::9          1068406                       # Per bank write bursts
system.mem_ctrls0.perBankRdBursts::10         1067907                       # Per bank write bursts
system.mem_ctrls0.perBankRdBursts::11         1067637                       # Per bank write bursts
system.mem_ctrls0.perBankRdBursts::12         1067117                       # Per bank write bursts
system.mem_ctrls0.perBankRdBursts::13         1066058                       # Per bank write bursts
system.mem_ctrls0.perBankRdBursts::14         1066335                       # Per bank write bursts
system.mem_ctrls0.perBankRdBursts::15         1066982                       # Per bank write bursts
system.mem_ctrls0.perBankWrBursts::0           768514                       # Per bank write bursts
system.mem_ctrls0.perBankWrBursts::1           768259                       # Per bank write bursts
system.mem_ctrls0.perBankWrBursts::2           768344                       # Per bank write bursts
system.mem_ctrls0.perBankWrBursts::3           768257                       # Per bank write bursts
system.mem_ctrls0.perBankWrBursts::4           769893                       # Per bank write bursts
system.mem_ctrls0.perBankWrBursts::5           769832                       # Per bank write bursts
system.mem_ctrls0.perBankWrBursts::6           769033                       # Per bank write bursts
system.mem_ctrls0.perBankWrBursts::7           769207                       # Per bank write bursts
system.mem_ctrls0.perBankWrBursts::8           768745                       # Per bank write bursts
system.mem_ctrls0.perBankWrBursts::9           768555                       # Per bank write bursts
system.mem_ctrls0.perBankWrBursts::10          768254                       # Per bank write bursts
system.mem_ctrls0.perBankWrBursts::11          768153                       # Per bank write bursts
system.mem_ctrls0.perBankWrBursts::12          767434                       # Per bank write bursts
system.mem_ctrls0.perBankWrBursts::13          766904                       # Per bank write bursts
system.mem_ctrls0.perBankWrBursts::14          767211                       # Per bank write bursts
system.mem_ctrls0.perBankWrBursts::15          767838                       # Per bank write bursts
system.mem_ctrls0.numRdRetry                        0                       # Number of times read queue was full causing retry
system.mem_ctrls0.numWrRetry                        0                       # Number of times write queue was full causing retry
system.mem_ctrls0.totGap                 6384362012568                       # Total gap between requests
system.mem_ctrls0.readPktSize::0                    0                       # Read request sizes (log2)
system.mem_ctrls0.readPktSize::1                    0                       # Read request sizes (log2)
system.mem_ctrls0.readPktSize::2                    0                       # Read request sizes (log2)
system.mem_ctrls0.readPktSize::3                    0                       # Read request sizes (log2)
system.mem_ctrls0.readPktSize::4                    0                       # Read request sizes (log2)
system.mem_ctrls0.readPktSize::5                    0                       # Read request sizes (log2)
system.mem_ctrls0.readPktSize::6             17086430                       # Read request sizes (log2)
system.mem_ctrls0.writePktSize::0                   0                       # Write request sizes (log2)
system.mem_ctrls0.writePktSize::1                   0                       # Write request sizes (log2)
system.mem_ctrls0.writePktSize::2                   0                       # Write request sizes (log2)
system.mem_ctrls0.writePktSize::3                   0                       # Write request sizes (log2)
system.mem_ctrls0.writePktSize::4                   0                       # Write request sizes (log2)
system.mem_ctrls0.writePktSize::5                   0                       # Write request sizes (log2)
system.mem_ctrls0.writePktSize::6            12294461                       # Write request sizes (log2)
system.mem_ctrls0.rdQLenPdf::0               16141354                       # What read queue length does an incoming req see
system.mem_ctrls0.rdQLenPdf::1                 764260                       # What read queue length does an incoming req see
system.mem_ctrls0.rdQLenPdf::2                 171758                       # What read queue length does an incoming req see
system.mem_ctrls0.rdQLenPdf::3                   9058                       # What read queue length does an incoming req see
system.mem_ctrls0.rdQLenPdf::4                      0                       # What read queue length does an incoming req see
system.mem_ctrls0.rdQLenPdf::5                      0                       # What read queue length does an incoming req see
system.mem_ctrls0.rdQLenPdf::6                      0                       # What read queue length does an incoming req see
system.mem_ctrls0.rdQLenPdf::7                      0                       # What read queue length does an incoming req see
system.mem_ctrls0.rdQLenPdf::8                      0                       # What read queue length does an incoming req see
system.mem_ctrls0.rdQLenPdf::9                      0                       # What read queue length does an incoming req see
system.mem_ctrls0.rdQLenPdf::10                     0                       # What read queue length does an incoming req see
system.mem_ctrls0.rdQLenPdf::11                     0                       # What read queue length does an incoming req see
system.mem_ctrls0.rdQLenPdf::12                     0                       # What read queue length does an incoming req see
system.mem_ctrls0.rdQLenPdf::13                     0                       # What read queue length does an incoming req see
system.mem_ctrls0.rdQLenPdf::14                     0                       # What read queue length does an incoming req see
system.mem_ctrls0.rdQLenPdf::15                     0                       # What read queue length does an incoming req see
system.mem_ctrls0.rdQLenPdf::16                     0                       # What read queue length does an incoming req see
system.mem_ctrls0.rdQLenPdf::17                     0                       # What read queue length does an incoming req see
system.mem_ctrls0.rdQLenPdf::18                     0                       # What read queue length does an incoming req see
system.mem_ctrls0.rdQLenPdf::19                     0                       # What read queue length does an incoming req see
system.mem_ctrls0.rdQLenPdf::20                     0                       # What read queue length does an incoming req see
system.mem_ctrls0.rdQLenPdf::21                     0                       # What read queue length does an incoming req see
system.mem_ctrls0.rdQLenPdf::22                     0                       # What read queue length does an incoming req see
system.mem_ctrls0.rdQLenPdf::23                     0                       # What read queue length does an incoming req see
system.mem_ctrls0.rdQLenPdf::24                     0                       # What read queue length does an incoming req see
system.mem_ctrls0.rdQLenPdf::25                     0                       # What read queue length does an incoming req see
system.mem_ctrls0.rdQLenPdf::26                     0                       # What read queue length does an incoming req see
system.mem_ctrls0.rdQLenPdf::27                     0                       # What read queue length does an incoming req see
system.mem_ctrls0.rdQLenPdf::28                     0                       # What read queue length does an incoming req see
system.mem_ctrls0.rdQLenPdf::29                     0                       # What read queue length does an incoming req see
system.mem_ctrls0.rdQLenPdf::30                     0                       # What read queue length does an incoming req see
system.mem_ctrls0.rdQLenPdf::31                     0                       # What read queue length does an incoming req see
system.mem_ctrls0.wrQLenPdf::0                      2                       # What write queue length does an incoming req see
system.mem_ctrls0.wrQLenPdf::1                      2                       # What write queue length does an incoming req see
system.mem_ctrls0.wrQLenPdf::2                      2                       # What write queue length does an incoming req see
system.mem_ctrls0.wrQLenPdf::3                      2                       # What write queue length does an incoming req see
system.mem_ctrls0.wrQLenPdf::4                      2                       # What write queue length does an incoming req see
system.mem_ctrls0.wrQLenPdf::5                      2                       # What write queue length does an incoming req see
system.mem_ctrls0.wrQLenPdf::6                      2                       # What write queue length does an incoming req see
system.mem_ctrls0.wrQLenPdf::7                      2                       # What write queue length does an incoming req see
system.mem_ctrls0.wrQLenPdf::8                      2                       # What write queue length does an incoming req see
system.mem_ctrls0.wrQLenPdf::9                      2                       # What write queue length does an incoming req see
system.mem_ctrls0.wrQLenPdf::10                     2                       # What write queue length does an incoming req see
system.mem_ctrls0.wrQLenPdf::11                     2                       # What write queue length does an incoming req see
system.mem_ctrls0.wrQLenPdf::12                     2                       # What write queue length does an incoming req see
system.mem_ctrls0.wrQLenPdf::13                     2                       # What write queue length does an incoming req see
system.mem_ctrls0.wrQLenPdf::14                     2                       # What write queue length does an incoming req see
system.mem_ctrls0.wrQLenPdf::15                391163                       # What write queue length does an incoming req see
system.mem_ctrls0.wrQLenPdf::16                422225                       # What write queue length does an incoming req see
system.mem_ctrls0.wrQLenPdf::17                660475                       # What write queue length does an incoming req see
system.mem_ctrls0.wrQLenPdf::18                712733                       # What write queue length does an incoming req see
system.mem_ctrls0.wrQLenPdf::19                721248                       # What write queue length does an incoming req see
system.mem_ctrls0.wrQLenPdf::20                722301                       # What write queue length does an incoming req see
system.mem_ctrls0.wrQLenPdf::21                722248                       # What write queue length does an incoming req see
system.mem_ctrls0.wrQLenPdf::22                726099                       # What write queue length does an incoming req see
system.mem_ctrls0.wrQLenPdf::23                731030                       # What write queue length does an incoming req see
system.mem_ctrls0.wrQLenPdf::24                732838                       # What write queue length does an incoming req see
system.mem_ctrls0.wrQLenPdf::25                724922                       # What write queue length does an incoming req see
system.mem_ctrls0.wrQLenPdf::26                722459                       # What write queue length does an incoming req see
system.mem_ctrls0.wrQLenPdf::27                720368                       # What write queue length does an incoming req see
system.mem_ctrls0.wrQLenPdf::28                719476                       # What write queue length does an incoming req see
system.mem_ctrls0.wrQLenPdf::29                719386                       # What write queue length does an incoming req see
system.mem_ctrls0.wrQLenPdf::30                718141                       # What write queue length does an incoming req see
system.mem_ctrls0.wrQLenPdf::31                712984                       # What write queue length does an incoming req see
system.mem_ctrls0.wrQLenPdf::32                712805                       # What write queue length does an incoming req see
system.mem_ctrls0.wrQLenPdf::33                  1266                       # What write queue length does an incoming req see
system.mem_ctrls0.wrQLenPdf::34                   220                       # What write queue length does an incoming req see
system.mem_ctrls0.wrQLenPdf::35                    40                       # What write queue length does an incoming req see
system.mem_ctrls0.wrQLenPdf::36                     4                       # What write queue length does an incoming req see
system.mem_ctrls0.wrQLenPdf::37                     0                       # What write queue length does an incoming req see
system.mem_ctrls0.wrQLenPdf::38                     0                       # What write queue length does an incoming req see
system.mem_ctrls0.wrQLenPdf::39                     0                       # What write queue length does an incoming req see
system.mem_ctrls0.wrQLenPdf::40                     0                       # What write queue length does an incoming req see
system.mem_ctrls0.wrQLenPdf::41                     0                       # What write queue length does an incoming req see
system.mem_ctrls0.wrQLenPdf::42                     0                       # What write queue length does an incoming req see
system.mem_ctrls0.wrQLenPdf::43                     0                       # What write queue length does an incoming req see
system.mem_ctrls0.wrQLenPdf::44                     0                       # What write queue length does an incoming req see
system.mem_ctrls0.wrQLenPdf::45                     0                       # What write queue length does an incoming req see
system.mem_ctrls0.wrQLenPdf::46                     0                       # What write queue length does an incoming req see
system.mem_ctrls0.wrQLenPdf::47                     0                       # What write queue length does an incoming req see
system.mem_ctrls0.wrQLenPdf::48                     0                       # What write queue length does an incoming req see
system.mem_ctrls0.wrQLenPdf::49                     0                       # What write queue length does an incoming req see
system.mem_ctrls0.wrQLenPdf::50                     0                       # What write queue length does an incoming req see
system.mem_ctrls0.wrQLenPdf::51                     0                       # What write queue length does an incoming req see
system.mem_ctrls0.wrQLenPdf::52                     0                       # What write queue length does an incoming req see
system.mem_ctrls0.wrQLenPdf::53                     0                       # What write queue length does an incoming req see
system.mem_ctrls0.wrQLenPdf::54                     0                       # What write queue length does an incoming req see
system.mem_ctrls0.wrQLenPdf::55                     0                       # What write queue length does an incoming req see
system.mem_ctrls0.wrQLenPdf::56                     0                       # What write queue length does an incoming req see
system.mem_ctrls0.wrQLenPdf::57                     0                       # What write queue length does an incoming req see
system.mem_ctrls0.wrQLenPdf::58                     0                       # What write queue length does an incoming req see
system.mem_ctrls0.wrQLenPdf::59                     0                       # What write queue length does an incoming req see
system.mem_ctrls0.wrQLenPdf::60                     0                       # What write queue length does an incoming req see
system.mem_ctrls0.wrQLenPdf::61                     0                       # What write queue length does an incoming req see
system.mem_ctrls0.wrQLenPdf::62                     0                       # What write queue length does an incoming req see
system.mem_ctrls0.wrQLenPdf::63                     0                       # What write queue length does an incoming req see
system.mem_ctrls0.bytesPerActivate::samples     19899715                       # Bytes accessed per row activation
system.mem_ctrls0.bytesPerActivate::mean    94.492536                       # Bytes accessed per row activation
system.mem_ctrls0.bytesPerActivate::gmean    84.392250                       # Bytes accessed per row activation
system.mem_ctrls0.bytesPerActivate::stdev    55.068399                       # Bytes accessed per row activation
system.mem_ctrls0.bytesPerActivate::0-127     13571810     68.20%     68.20% # Bytes accessed per row activation
system.mem_ctrls0.bytesPerActivate::128-255      5634526     28.31%     96.52% # Bytes accessed per row activation
system.mem_ctrls0.bytesPerActivate::256-383       607587      3.05%     99.57% # Bytes accessed per row activation
system.mem_ctrls0.bytesPerActivate::384-511        70314      0.35%     99.92% # Bytes accessed per row activation
system.mem_ctrls0.bytesPerActivate::512-639        12183      0.06%     99.98% # Bytes accessed per row activation
system.mem_ctrls0.bytesPerActivate::640-767         2215      0.01%     99.99% # Bytes accessed per row activation
system.mem_ctrls0.bytesPerActivate::768-895          720      0.00%    100.00% # Bytes accessed per row activation
system.mem_ctrls0.bytesPerActivate::896-1023          232      0.00%    100.00% # Bytes accessed per row activation
system.mem_ctrls0.bytesPerActivate::1024-1151          128      0.00%    100.00% # Bytes accessed per row activation
system.mem_ctrls0.bytesPerActivate::total     19899715                       # Bytes accessed per row activation
system.mem_ctrls0.rdPerTurnAround::samples       712622                       # Reads before turning the bus around for writes
system.mem_ctrls0.rdPerTurnAround::mean     23.976821                       # Reads before turning the bus around for writes
system.mem_ctrls0.rdPerTurnAround::gmean    23.374089                       # Reads before turning the bus around for writes
system.mem_ctrls0.rdPerTurnAround::stdev    39.276649                       # Reads before turning the bus around for writes
system.mem_ctrls0.rdPerTurnAround::0-2047       712621    100.00%    100.00% # Reads before turning the bus around for writes
system.mem_ctrls0.rdPerTurnAround::32768-34815            1      0.00%    100.00% # Reads before turning the bus around for writes
system.mem_ctrls0.rdPerTurnAround::total       712622                       # Reads before turning the bus around for writes
system.mem_ctrls0.wrPerTurnAround::samples       712622                       # Writes before turning the bus around for reads
system.mem_ctrls0.wrPerTurnAround::mean     17.252390                       # Writes before turning the bus around for reads
system.mem_ctrls0.wrPerTurnAround::gmean    17.216293                       # Writes before turning the bus around for reads
system.mem_ctrls0.wrPerTurnAround::stdev     1.116939                       # Writes before turning the bus around for reads
system.mem_ctrls0.wrPerTurnAround::16          291431     40.90%     40.90% # Writes before turning the bus around for reads
system.mem_ctrls0.wrPerTurnAround::17           22609      3.17%     44.07% # Writes before turning the bus around for reads
system.mem_ctrls0.wrPerTurnAround::18          337418     47.35%     91.42% # Writes before turning the bus around for reads
system.mem_ctrls0.wrPerTurnAround::19           51032      7.16%     98.58% # Writes before turning the bus around for reads
system.mem_ctrls0.wrPerTurnAround::20            8888      1.25%     99.83% # Writes before turning the bus around for reads
system.mem_ctrls0.wrPerTurnAround::21            1094      0.15%     99.98% # Writes before turning the bus around for reads
system.mem_ctrls0.wrPerTurnAround::22             135      0.02%    100.00% # Writes before turning the bus around for reads
system.mem_ctrls0.wrPerTurnAround::23              12      0.00%    100.00% # Writes before turning the bus around for reads
system.mem_ctrls0.wrPerTurnAround::24               3      0.00%    100.00% # Writes before turning the bus around for reads
system.mem_ctrls0.wrPerTurnAround::total       712622                       # Writes before turning the bus around for reads
system.mem_ctrls0.totQLat                456035508532                       # Total ticks spent queuing
system.mem_ctrls0.totMemAccLat           776406071032                       # Total ticks spent from burst creation until serviced by the DRAM
system.mem_ctrls0.totBusLat               85432150000                       # Total ticks spent in databus transfers
system.mem_ctrls0.avgQLat                    26689.92                       # Average queueing delay per DRAM burst
system.mem_ctrls0.avgBusLat                   5000.00                       # Average bus latency per DRAM burst
system.mem_ctrls0.avgMemAccLat               45439.92                       # Average memory access latency per DRAM burst
system.mem_ctrls0.avgRdBW                      171.28                       # Average DRAM read bandwidth in MiByte/s
system.mem_ctrls0.avgWrBW                      123.25                       # Average achieved write bandwidth in MiByte/s
system.mem_ctrls0.avgRdBWSys                   171.28                       # Average system read bandwidth in MiByte/s
system.mem_ctrls0.avgWrBWSys                   123.25                       # Average system write bandwidth in MiByte/s
system.mem_ctrls0.peakBW                     12800.00                       # Theoretical peak bandwidth in MiByte/s
system.mem_ctrls0.busUtil                        2.30                       # Data bus utilization in percentage
system.mem_ctrls0.busUtilRead                    1.34                       # Data bus utilization in percentage for reads
system.mem_ctrls0.busUtilWrite                   0.96                       # Data bus utilization in percentage for writes
system.mem_ctrls0.avgRdQLen                      1.02                       # Average read queue length when enqueuing
system.mem_ctrls0.avgWrQLen                     24.89                       # Average write queue length when enqueuing
system.mem_ctrls0.readRowHits                 7241365                       # Number of row buffer hits during reads
system.mem_ctrls0.writeRowHits                2239776                       # Number of row buffer hits during writes
system.mem_ctrls0.readRowHitRate                42.38                       # Row buffer hit rate for reads
system.mem_ctrls0.writeRowHitRate               18.22                       # Row buffer hit rate for writes
system.mem_ctrls0.avgGap                    217296.41                       # Average gap between requests
system.mem_ctrls0.pageHitRate                   32.27                       # Row buffer hit rate, read and write combined
system.mem_ctrls0_0.actEnergy             71070303360                       # Energy for activate commands per rank (pJ)
system.mem_ctrls0_0.preEnergy             37774762080                       # Energy for precharge commands per rank (pJ)
system.mem_ctrls0_0.readEnergy            61028493120                       # Energy for read commands per rank (pJ)
system.mem_ctrls0_0.writeEnergy           32109989580                       # Energy for write commands per rank (pJ)
system.mem_ctrls0_0.refreshEnergy        524269480800.000122                       # Energy for refresh commands per rank (pJ)
system.mem_ctrls0_0.actBackEnergy        613002698670                       # Energy for active background per rank (pJ)
system.mem_ctrls0_0.preBackEnergy         17269032960                       # Energy for precharge background per rank (pJ)
system.mem_ctrls0_0.actPowerDownEnergy   1750133601960                       # Energy for active power-down per rank (pJ)
system.mem_ctrls0_0.prePowerDownEnergy   380444458080                       # Energy for precharge power-down per rank (pJ)
system.mem_ctrls0_0.selfRefreshEnergy     72233286480                       # Energy for self refresh per rank (pJ)
system.mem_ctrls0_0.totalEnergy          3559584874500                       # Total energy per rank (pJ)
system.mem_ctrls0_0.averagePower           557.547437                       # Core power per rank (mW)
system.mem_ctrls0_0.totalIdleTime        4994537013282                       # Total Idle time Per DRAM Rank
system.mem_ctrls0_0.memoryStateTime::IDLE  20166831117                       # Time in different power states
system.mem_ctrls0_0.memoryStateTime::REF 222143636000                       # Time in different power states
system.mem_ctrls0_0.memoryStateTime::SREF 165780139797                       # Time in different power states
system.mem_ctrls0_0.memoryStateTime::PRE_PDN 990741728426                       # Time in different power states
system.mem_ctrls0_0.memoryStateTime::ACT 1147514265743                       # Time in different power states
system.mem_ctrls0_0.memoryStateTime::ACT_PDN 3838015597632                       # Time in different power states
system.mem_ctrls0_1.actEnergy             71013704580                       # Energy for activate commands per rank (pJ)
system.mem_ctrls0_1.preEnergy             37744656345                       # Energy for precharge commands per rank (pJ)
system.mem_ctrls0_1.readEnergy            60968609940                       # Energy for read commands per rank (pJ)
system.mem_ctrls0_1.writeEnergy           32066950680                       # Energy for write commands per rank (pJ)
system.mem_ctrls0_1.refreshEnergy        524236904880.000122                       # Energy for refresh commands per rank (pJ)
system.mem_ctrls0_1.actBackEnergy        613184027640                       # Energy for active background per rank (pJ)
system.mem_ctrls0_1.preBackEnergy         17285837280                       # Energy for precharge background per rank (pJ)
system.mem_ctrls0_1.actPowerDownEnergy   1748010627270                       # Energy for active power-down per rank (pJ)
system.mem_ctrls0_1.prePowerDownEnergy   382195148640                       # Energy for precharge power-down per rank (pJ)
system.mem_ctrls0_1.selfRefreshEnergy     72093270750                       # Energy for self refresh per rank (pJ)
system.mem_ctrls0_1.totalEnergy          3559047714105                       # Total energy per rank (pJ)
system.mem_ctrls0_1.averagePower           557.463297                       # Core power per rank (mW)
system.mem_ctrls0_1.totalIdleTime        4994087040309                       # Total Idle time Per DRAM Rank
system.mem_ctrls0_1.memoryStateTime::IDLE  20211032483                       # Time in different power states
system.mem_ctrls0_1.memoryStateTime::REF 222129994000                       # Time in different power states
system.mem_ctrls0_1.memoryStateTime::SREF 165436908524                       # Time in different power states
system.mem_ctrls0_1.memoryStateTime::PRE_PDN 995295554152                       # Time in different power states
system.mem_ctrls0_1.memoryStateTime::ACT 1147934131923                       # Time in different power states
system.mem_ctrls0_1.memoryStateTime::ACT_PDN 3833354577633                       # Time in different power states
system.mem_ctrls1.pwrStateResidencyTicks::UNDEFINED 26369463558582                       # Cumulative time (in ticks) in various power states
system.mem_ctrls1.bytes_read::cpu.inst            128                       # Number of bytes read from this memory
system.mem_ctrls1.bytes_read::cpu.data            128                       # Number of bytes read from this memory
system.mem_ctrls1.bytes_read::switch_cpus.inst          896                       # Number of bytes read from this memory
system.mem_ctrls1.bytes_read::switch_cpus.data    908272704                       # Number of bytes read from this memory
system.mem_ctrls1.bytes_read::switch_cpus_1.data    185176128                       # Number of bytes read from this memory
system.mem_ctrls1.bytes_read::total        1093449984                       # Number of bytes read from this memory
system.mem_ctrls1.bytes_inst_read::cpu.inst          128                       # Number of instructions bytes read from this memory
system.mem_ctrls1.bytes_inst_read::switch_cpus.inst          896                       # Number of instructions bytes read from this memory
system.mem_ctrls1.bytes_inst_read::total         1024                       # Number of instructions bytes read from this memory
system.mem_ctrls1.bytes_written::writebacks    786775168                       # Number of bytes written to this memory
system.mem_ctrls1.bytes_written::total      786775168                       # Number of bytes written to this memory
system.mem_ctrls1.num_reads::cpu.inst               2                       # Number of read requests responded to by this memory
system.mem_ctrls1.num_reads::cpu.data               2                       # Number of read requests responded to by this memory
system.mem_ctrls1.num_reads::switch_cpus.inst           14                       # Number of read requests responded to by this memory
system.mem_ctrls1.num_reads::switch_cpus.data     14191761                       # Number of read requests responded to by this memory
system.mem_ctrls1.num_reads::switch_cpus_1.data      2893377                       # Number of read requests responded to by this memory
system.mem_ctrls1.num_reads::total           17085156                       # Number of read requests responded to by this memory
system.mem_ctrls1.num_writes::writebacks     12293362                       # Number of write requests responded to by this memory
system.mem_ctrls1.num_writes::total          12293362                       # Number of write requests responded to by this memory
system.mem_ctrls1.bw_read::cpu.inst                20                       # Total read bandwidth from this memory (bytes/s)
system.mem_ctrls1.bw_read::cpu.data                20                       # Total read bandwidth from this memory (bytes/s)
system.mem_ctrls1.bw_read::switch_cpus.inst          140                       # Total read bandwidth from this memory (bytes/s)
system.mem_ctrls1.bw_read::switch_cpus.data    142265222                       # Total read bandwidth from this memory (bytes/s)
system.mem_ctrls1.bw_read::switch_cpus_1.data     29004640                       # Total read bandwidth from this memory (bytes/s)
system.mem_ctrls1.bw_read::total            171270042                       # Total read bandwidth from this memory (bytes/s)
system.mem_ctrls1.bw_inst_read::cpu.inst           20                       # Instruction read bandwidth from this memory (bytes/s)
system.mem_ctrls1.bw_inst_read::switch_cpus.inst          140                       # Instruction read bandwidth from this memory (bytes/s)
system.mem_ctrls1.bw_inst_read::total             160                       # Instruction read bandwidth from this memory (bytes/s)
system.mem_ctrls1.bw_write::writebacks      123234733                       # Write bandwidth from this memory (bytes/s)
system.mem_ctrls1.bw_write::total           123234733                       # Write bandwidth from this memory (bytes/s)
system.mem_ctrls1.bw_total::writebacks      123234733                       # Total bandwidth to/from this memory (bytes/s)
system.mem_ctrls1.bw_total::cpu.inst               20                       # Total bandwidth to/from this memory (bytes/s)
system.mem_ctrls1.bw_total::cpu.data               20                       # Total bandwidth to/from this memory (bytes/s)
system.mem_ctrls1.bw_total::switch_cpus.inst          140                       # Total bandwidth to/from this memory (bytes/s)
system.mem_ctrls1.bw_total::switch_cpus.data    142265222                       # Total bandwidth to/from this memory (bytes/s)
system.mem_ctrls1.bw_total::switch_cpus_1.data     29004640                       # Total bandwidth to/from this memory (bytes/s)
system.mem_ctrls1.bw_total::total           294504775                       # Total bandwidth to/from this memory (bytes/s)
system.mem_ctrls1.readReqs                   17085156                       # Number of read requests accepted
system.mem_ctrls1.writeReqs                  12293362                       # Number of write requests accepted
system.mem_ctrls1.readBursts                 17085156                       # Number of DRAM read bursts, including those serviced by the write queue
system.mem_ctrls1.writeBursts                12293362                       # Number of DRAM write bursts, including those merged in the write queue
system.mem_ctrls1.bytesReadDRAM            1093449984                       # Total number of bytes read from DRAM
system.mem_ctrls1.bytesReadWrQ                      0                       # Total number of bytes read from write queue
system.mem_ctrls1.bytesWritten              786773248                       # Total number of bytes written to DRAM
system.mem_ctrls1.bytesReadSys             1093449984                       # Total read bytes from the system interface side
system.mem_ctrls1.bytesWrittenSys           786775168                       # Total written bytes from the system interface side
system.mem_ctrls1.servicedByWrQ                     0                       # Number of DRAM read bursts serviced by the write queue
system.mem_ctrls1.mergedWrBursts                    0                       # Number of DRAM write bursts merged with an existing one
system.mem_ctrls1.neitherReadNorWriteReqs            0                       # Number of requests that are neither read nor write
system.mem_ctrls1.perBankRdBursts::0          1067187                       # Per bank write bursts
system.mem_ctrls1.perBankRdBursts::1          1067374                       # Per bank write bursts
system.mem_ctrls1.perBankRdBursts::2          1067801                       # Per bank write bursts
system.mem_ctrls1.perBankRdBursts::3          1067990                       # Per bank write bursts
system.mem_ctrls1.perBankRdBursts::4          1069221                       # Per bank write bursts
system.mem_ctrls1.perBankRdBursts::5          1069164                       # Per bank write bursts
system.mem_ctrls1.perBankRdBursts::6          1069401                       # Per bank write bursts
system.mem_ctrls1.perBankRdBursts::7          1069450                       # Per bank write bursts
system.mem_ctrls1.perBankRdBursts::8          1068303                       # Per bank write bursts
system.mem_ctrls1.perBankRdBursts::9          1068440                       # Per bank write bursts
system.mem_ctrls1.perBankRdBursts::10         1067796                       # Per bank write bursts
system.mem_ctrls1.perBankRdBursts::11         1066930                       # Per bank write bursts
system.mem_ctrls1.perBankRdBursts::12         1066334                       # Per bank write bursts
system.mem_ctrls1.perBankRdBursts::13         1066492                       # Per bank write bursts
system.mem_ctrls1.perBankRdBursts::14         1066629                       # Per bank write bursts
system.mem_ctrls1.perBankRdBursts::15         1066644                       # Per bank write bursts
system.mem_ctrls1.perBankWrBursts::0           767989                       # Per bank write bursts
system.mem_ctrls1.perBankWrBursts::1           768166                       # Per bank write bursts
system.mem_ctrls1.perBankWrBursts::2           768470                       # Per bank write bursts
system.mem_ctrls1.perBankWrBursts::3           768499                       # Per bank write bursts
system.mem_ctrls1.perBankWrBursts::4           769644                       # Per bank write bursts
system.mem_ctrls1.perBankWrBursts::5           769450                       # Per bank write bursts
system.mem_ctrls1.perBankWrBursts::6           769627                       # Per bank write bursts
system.mem_ctrls1.perBankWrBursts::7           769652                       # Per bank write bursts
system.mem_ctrls1.perBankWrBursts::8           768467                       # Per bank write bursts
system.mem_ctrls1.perBankWrBursts::9           768580                       # Per bank write bursts
system.mem_ctrls1.perBankWrBursts::10          768143                       # Per bank write bursts
system.mem_ctrls1.perBankWrBursts::11          767410                       # Per bank write bursts
system.mem_ctrls1.perBankWrBursts::12          766931                       # Per bank write bursts
system.mem_ctrls1.perBankWrBursts::13          767329                       # Per bank write bursts
system.mem_ctrls1.perBankWrBursts::14          767474                       # Per bank write bursts
system.mem_ctrls1.perBankWrBursts::15          767501                       # Per bank write bursts
system.mem_ctrls1.numRdRetry                        0                       # Number of times read queue was full causing retry
system.mem_ctrls1.numWrRetry                        0                       # Number of times write queue was full causing retry
system.mem_ctrls1.totGap                 6384362124123                       # Total gap between requests
system.mem_ctrls1.readPktSize::0                    0                       # Read request sizes (log2)
system.mem_ctrls1.readPktSize::1                    0                       # Read request sizes (log2)
system.mem_ctrls1.readPktSize::2                    0                       # Read request sizes (log2)
system.mem_ctrls1.readPktSize::3                    0                       # Read request sizes (log2)
system.mem_ctrls1.readPktSize::4                    0                       # Read request sizes (log2)
system.mem_ctrls1.readPktSize::5                    0                       # Read request sizes (log2)
system.mem_ctrls1.readPktSize::6             17085156                       # Read request sizes (log2)
system.mem_ctrls1.writePktSize::0                   0                       # Write request sizes (log2)
system.mem_ctrls1.writePktSize::1                   0                       # Write request sizes (log2)
system.mem_ctrls1.writePktSize::2                   0                       # Write request sizes (log2)
system.mem_ctrls1.writePktSize::3                   0                       # Write request sizes (log2)
system.mem_ctrls1.writePktSize::4                   0                       # Write request sizes (log2)
system.mem_ctrls1.writePktSize::5                   0                       # Write request sizes (log2)
system.mem_ctrls1.writePktSize::6            12293362                       # Write request sizes (log2)
system.mem_ctrls1.rdQLenPdf::0               16141202                       # What read queue length does an incoming req see
system.mem_ctrls1.rdQLenPdf::1                 764332                       # What read queue length does an incoming req see
system.mem_ctrls1.rdQLenPdf::2                 170768                       # What read queue length does an incoming req see
system.mem_ctrls1.rdQLenPdf::3                   8854                       # What read queue length does an incoming req see
system.mem_ctrls1.rdQLenPdf::4                      0                       # What read queue length does an incoming req see
system.mem_ctrls1.rdQLenPdf::5                      0                       # What read queue length does an incoming req see
system.mem_ctrls1.rdQLenPdf::6                      0                       # What read queue length does an incoming req see
system.mem_ctrls1.rdQLenPdf::7                      0                       # What read queue length does an incoming req see
system.mem_ctrls1.rdQLenPdf::8                      0                       # What read queue length does an incoming req see
system.mem_ctrls1.rdQLenPdf::9                      0                       # What read queue length does an incoming req see
system.mem_ctrls1.rdQLenPdf::10                     0                       # What read queue length does an incoming req see
system.mem_ctrls1.rdQLenPdf::11                     0                       # What read queue length does an incoming req see
system.mem_ctrls1.rdQLenPdf::12                     0                       # What read queue length does an incoming req see
system.mem_ctrls1.rdQLenPdf::13                     0                       # What read queue length does an incoming req see
system.mem_ctrls1.rdQLenPdf::14                     0                       # What read queue length does an incoming req see
system.mem_ctrls1.rdQLenPdf::15                     0                       # What read queue length does an incoming req see
system.mem_ctrls1.rdQLenPdf::16                     0                       # What read queue length does an incoming req see
system.mem_ctrls1.rdQLenPdf::17                     0                       # What read queue length does an incoming req see
system.mem_ctrls1.rdQLenPdf::18                     0                       # What read queue length does an incoming req see
system.mem_ctrls1.rdQLenPdf::19                     0                       # What read queue length does an incoming req see
system.mem_ctrls1.rdQLenPdf::20                     0                       # What read queue length does an incoming req see
system.mem_ctrls1.rdQLenPdf::21                     0                       # What read queue length does an incoming req see
system.mem_ctrls1.rdQLenPdf::22                     0                       # What read queue length does an incoming req see
system.mem_ctrls1.rdQLenPdf::23                     0                       # What read queue length does an incoming req see
system.mem_ctrls1.rdQLenPdf::24                     0                       # What read queue length does an incoming req see
system.mem_ctrls1.rdQLenPdf::25                     0                       # What read queue length does an incoming req see
system.mem_ctrls1.rdQLenPdf::26                     0                       # What read queue length does an incoming req see
system.mem_ctrls1.rdQLenPdf::27                     0                       # What read queue length does an incoming req see
system.mem_ctrls1.rdQLenPdf::28                     0                       # What read queue length does an incoming req see
system.mem_ctrls1.rdQLenPdf::29                     0                       # What read queue length does an incoming req see
system.mem_ctrls1.rdQLenPdf::30                     0                       # What read queue length does an incoming req see
system.mem_ctrls1.rdQLenPdf::31                     0                       # What read queue length does an incoming req see
system.mem_ctrls1.wrQLenPdf::0                      2                       # What write queue length does an incoming req see
system.mem_ctrls1.wrQLenPdf::1                      2                       # What write queue length does an incoming req see
system.mem_ctrls1.wrQLenPdf::2                      2                       # What write queue length does an incoming req see
system.mem_ctrls1.wrQLenPdf::3                      2                       # What write queue length does an incoming req see
system.mem_ctrls1.wrQLenPdf::4                      2                       # What write queue length does an incoming req see
system.mem_ctrls1.wrQLenPdf::5                      2                       # What write queue length does an incoming req see
system.mem_ctrls1.wrQLenPdf::6                      2                       # What write queue length does an incoming req see
system.mem_ctrls1.wrQLenPdf::7                      2                       # What write queue length does an incoming req see
system.mem_ctrls1.wrQLenPdf::8                      2                       # What write queue length does an incoming req see
system.mem_ctrls1.wrQLenPdf::9                      2                       # What write queue length does an incoming req see
system.mem_ctrls1.wrQLenPdf::10                     2                       # What write queue length does an incoming req see
system.mem_ctrls1.wrQLenPdf::11                     2                       # What write queue length does an incoming req see
system.mem_ctrls1.wrQLenPdf::12                     2                       # What write queue length does an incoming req see
system.mem_ctrls1.wrQLenPdf::13                     2                       # What write queue length does an incoming req see
system.mem_ctrls1.wrQLenPdf::14                     2                       # What write queue length does an incoming req see
system.mem_ctrls1.wrQLenPdf::15                391394                       # What write queue length does an incoming req see
system.mem_ctrls1.wrQLenPdf::16                422745                       # What write queue length does an incoming req see
system.mem_ctrls1.wrQLenPdf::17                659863                       # What write queue length does an incoming req see
system.mem_ctrls1.wrQLenPdf::18                712670                       # What write queue length does an incoming req see
system.mem_ctrls1.wrQLenPdf::19                721177                       # What write queue length does an incoming req see
system.mem_ctrls1.wrQLenPdf::20                722184                       # What write queue length does an incoming req see
system.mem_ctrls1.wrQLenPdf::21                722309                       # What write queue length does an incoming req see
system.mem_ctrls1.wrQLenPdf::22                726044                       # What write queue length does an incoming req see
system.mem_ctrls1.wrQLenPdf::23                731154                       # What write queue length does an incoming req see
system.mem_ctrls1.wrQLenPdf::24                732689                       # What write queue length does an incoming req see
system.mem_ctrls1.wrQLenPdf::25                724893                       # What write queue length does an incoming req see
system.mem_ctrls1.wrQLenPdf::26                722364                       # What write queue length does an incoming req see
system.mem_ctrls1.wrQLenPdf::27                720392                       # What write queue length does an incoming req see
system.mem_ctrls1.wrQLenPdf::28                719470                       # What write queue length does an incoming req see
system.mem_ctrls1.wrQLenPdf::29                719060                       # What write queue length does an incoming req see
system.mem_ctrls1.wrQLenPdf::30                717904                       # What write queue length does an incoming req see
system.mem_ctrls1.wrQLenPdf::31                712811                       # What write queue length does an incoming req see
system.mem_ctrls1.wrQLenPdf::32                712617                       # What write queue length does an incoming req see
system.mem_ctrls1.wrQLenPdf::33                  1314                       # What write queue length does an incoming req see
system.mem_ctrls1.wrQLenPdf::34                   235                       # What write queue length does an incoming req see
system.mem_ctrls1.wrQLenPdf::35                    35                       # What write queue length does an incoming req see
system.mem_ctrls1.wrQLenPdf::36                     8                       # What write queue length does an incoming req see
system.mem_ctrls1.wrQLenPdf::37                     0                       # What write queue length does an incoming req see
system.mem_ctrls1.wrQLenPdf::38                     0                       # What write queue length does an incoming req see
system.mem_ctrls1.wrQLenPdf::39                     0                       # What write queue length does an incoming req see
system.mem_ctrls1.wrQLenPdf::40                     0                       # What write queue length does an incoming req see
system.mem_ctrls1.wrQLenPdf::41                     0                       # What write queue length does an incoming req see
system.mem_ctrls1.wrQLenPdf::42                     0                       # What write queue length does an incoming req see
system.mem_ctrls1.wrQLenPdf::43                     0                       # What write queue length does an incoming req see
system.mem_ctrls1.wrQLenPdf::44                     0                       # What write queue length does an incoming req see
system.mem_ctrls1.wrQLenPdf::45                     0                       # What write queue length does an incoming req see
system.mem_ctrls1.wrQLenPdf::46                     0                       # What write queue length does an incoming req see
system.mem_ctrls1.wrQLenPdf::47                     0                       # What write queue length does an incoming req see
system.mem_ctrls1.wrQLenPdf::48                     0                       # What write queue length does an incoming req see
system.mem_ctrls1.wrQLenPdf::49                     0                       # What write queue length does an incoming req see
system.mem_ctrls1.wrQLenPdf::50                     0                       # What write queue length does an incoming req see
system.mem_ctrls1.wrQLenPdf::51                     0                       # What write queue length does an incoming req see
system.mem_ctrls1.wrQLenPdf::52                     0                       # What write queue length does an incoming req see
system.mem_ctrls1.wrQLenPdf::53                     0                       # What write queue length does an incoming req see
system.mem_ctrls1.wrQLenPdf::54                     0                       # What write queue length does an incoming req see
system.mem_ctrls1.wrQLenPdf::55                     0                       # What write queue length does an incoming req see
system.mem_ctrls1.wrQLenPdf::56                     0                       # What write queue length does an incoming req see
system.mem_ctrls1.wrQLenPdf::57                     0                       # What write queue length does an incoming req see
system.mem_ctrls1.wrQLenPdf::58                     0                       # What write queue length does an incoming req see
system.mem_ctrls1.wrQLenPdf::59                     0                       # What write queue length does an incoming req see
system.mem_ctrls1.wrQLenPdf::60                     0                       # What write queue length does an incoming req see
system.mem_ctrls1.wrQLenPdf::61                     0                       # What write queue length does an incoming req see
system.mem_ctrls1.wrQLenPdf::62                     0                       # What write queue length does an incoming req see
system.mem_ctrls1.wrQLenPdf::63                     0                       # What write queue length does an incoming req see
system.mem_ctrls1.bytesPerActivate::samples     19896276                       # Bytes accessed per row activation
system.mem_ctrls1.bytesPerActivate::mean    94.501232                       # Bytes accessed per row activation
system.mem_ctrls1.bytesPerActivate::gmean    84.400734                       # Bytes accessed per row activation
system.mem_ctrls1.bytesPerActivate::stdev    55.044209                       # Bytes accessed per row activation
system.mem_ctrls1.bytesPerActivate::0-127     13567665     68.19%     68.19% # Bytes accessed per row activation
system.mem_ctrls1.bytesPerActivate::128-255      5635385     28.32%     96.52% # Bytes accessed per row activation
system.mem_ctrls1.bytesPerActivate::256-383       607657      3.05%     99.57% # Bytes accessed per row activation
system.mem_ctrls1.bytesPerActivate::384-511        70290      0.35%     99.92% # Bytes accessed per row activation
system.mem_ctrls1.bytesPerActivate::512-639        12141      0.06%     99.98% # Bytes accessed per row activation
system.mem_ctrls1.bytesPerActivate::640-767         2113      0.01%     99.99% # Bytes accessed per row activation
system.mem_ctrls1.bytesPerActivate::768-895          653      0.00%    100.00% # Bytes accessed per row activation
system.mem_ctrls1.bytesPerActivate::896-1023          259      0.00%    100.00% # Bytes accessed per row activation
system.mem_ctrls1.bytesPerActivate::1024-1151          113      0.00%    100.00% # Bytes accessed per row activation
system.mem_ctrls1.bytesPerActivate::total     19896276                       # Bytes accessed per row activation
system.mem_ctrls1.rdPerTurnAround::samples       712455                       # Reads before turning the bus around for writes
system.mem_ctrls1.rdPerTurnAround::mean     23.980657                       # Reads before turning the bus around for writes
system.mem_ctrls1.rdPerTurnAround::gmean    23.380372                       # Reads before turning the bus around for writes
system.mem_ctrls1.rdPerTurnAround::stdev    39.334495                       # Reads before turning the bus around for writes
system.mem_ctrls1.rdPerTurnAround::0-2047       712454    100.00%    100.00% # Reads before turning the bus around for writes
system.mem_ctrls1.rdPerTurnAround::32768-34815            1      0.00%    100.00% # Reads before turning the bus around for writes
system.mem_ctrls1.rdPerTurnAround::total       712455                       # Reads before turning the bus around for writes
system.mem_ctrls1.wrPerTurnAround::samples       712455                       # Writes before turning the bus around for reads
system.mem_ctrls1.wrPerTurnAround::mean     17.254889                       # Writes before turning the bus around for reads
system.mem_ctrls1.wrPerTurnAround::gmean    17.218695                       # Writes before turning the bus around for reads
system.mem_ctrls1.wrPerTurnAround::stdev     1.118574                       # Writes before turning the bus around for reads
system.mem_ctrls1.wrPerTurnAround::16          290911     40.83%     40.83% # Writes before turning the bus around for reads
system.mem_ctrls1.wrPerTurnAround::17           22714      3.19%     44.02% # Writes before turning the bus around for reads
system.mem_ctrls1.wrPerTurnAround::18          336923     47.29%     91.31% # Writes before turning the bus around for reads
system.mem_ctrls1.wrPerTurnAround::19           51623      7.25%     98.56% # Writes before turning the bus around for reads
system.mem_ctrls1.wrPerTurnAround::20            8961      1.26%     99.81% # Writes before turning the bus around for reads
system.mem_ctrls1.wrPerTurnAround::21            1178      0.17%     99.98% # Writes before turning the bus around for reads
system.mem_ctrls1.wrPerTurnAround::22             134      0.02%    100.00% # Writes before turning the bus around for reads
system.mem_ctrls1.wrPerTurnAround::23               9      0.00%    100.00% # Writes before turning the bus around for reads
system.mem_ctrls1.wrPerTurnAround::24               1      0.00%    100.00% # Writes before turning the bus around for reads
system.mem_ctrls1.wrPerTurnAround::30               1      0.00%    100.00% # Writes before turning the bus around for reads
system.mem_ctrls1.wrPerTurnAround::total       712455                       # Writes before turning the bus around for reads
system.mem_ctrls1.totQLat                455896467746                       # Total ticks spent queuing
system.mem_ctrls1.totMemAccLat           776243142746                       # Total ticks spent from burst creation until serviced by the DRAM
system.mem_ctrls1.totBusLat               85425780000                       # Total ticks spent in databus transfers
system.mem_ctrls1.avgQLat                    26683.78                       # Average queueing delay per DRAM burst
system.mem_ctrls1.avgBusLat                   5000.00                       # Average bus latency per DRAM burst
system.mem_ctrls1.avgMemAccLat               45433.78                       # Average memory access latency per DRAM burst
system.mem_ctrls1.avgRdBW                      171.27                       # Average DRAM read bandwidth in MiByte/s
system.mem_ctrls1.avgWrBW                      123.23                       # Average achieved write bandwidth in MiByte/s
system.mem_ctrls1.avgRdBWSys                   171.27                       # Average system read bandwidth in MiByte/s
system.mem_ctrls1.avgWrBWSys                   123.23                       # Average system write bandwidth in MiByte/s
system.mem_ctrls1.peakBW                     12800.00                       # Theoretical peak bandwidth in MiByte/s
system.mem_ctrls1.busUtil                        2.30                       # Data bus utilization in percentage
system.mem_ctrls1.busUtilRead                    1.34                       # Data bus utilization in percentage for reads
system.mem_ctrls1.busUtilWrite                   0.96                       # Data bus utilization in percentage for writes
system.mem_ctrls1.avgRdQLen                      1.02                       # Average read queue length when enqueuing
system.mem_ctrls1.avgWrQLen                     24.89                       # Average write queue length when enqueuing
system.mem_ctrls1.readRowHits                 7240477                       # Number of row buffer hits during reads
system.mem_ctrls1.writeRowHits                2241729                       # Number of row buffer hits during writes
system.mem_ctrls1.readRowHitRate                42.38                       # Row buffer hit rate for reads
system.mem_ctrls1.writeRowHitRate               18.24                       # Row buffer hit rate for writes
system.mem_ctrls1.avgGap                    217313.96                       # Average gap between requests
system.mem_ctrls1.pageHitRate                   32.28                       # Row buffer hit rate, read and write combined
system.mem_ctrls1_0.actEnergy             71061399780                       # Energy for activate commands per rank (pJ)
system.mem_ctrls1_0.preEnergy             37770029715                       # Energy for precharge commands per rank (pJ)
system.mem_ctrls1_0.readEnergy            61029778320                       # Energy for read commands per rank (pJ)
system.mem_ctrls1_0.writeEnergy           32110814340                       # Energy for write commands per rank (pJ)
system.mem_ctrls1_0.refreshEnergy        524178514080.000122                       # Energy for refresh commands per rank (pJ)
system.mem_ctrls1_0.actBackEnergy        612721016070                       # Energy for active background per rank (pJ)
system.mem_ctrls1_0.preBackEnergy         17245686720                       # Energy for precharge background per rank (pJ)
system.mem_ctrls1_0.actPowerDownEnergy   1751225039100                       # Energy for active power-down per rank (pJ)
system.mem_ctrls1_0.prePowerDownEnergy   380051982720                       # Energy for precharge power-down per rank (pJ)
system.mem_ctrls1_0.selfRefreshEnergy     71925960990                       # Energy for self refresh per rank (pJ)
system.mem_ctrls1_0.totalEnergy          3559567516575                       # Total energy per rank (pJ)
system.mem_ctrls1_0.averagePower           557.544718                       # Core power per rank (mW)
system.mem_ctrls1_0.totalIdleTime        4995219940987                       # Total Idle time Per DRAM Rank
system.mem_ctrls1_0.memoryStateTime::IDLE  20098965557                       # Time in different power states
system.mem_ctrls1_0.memoryStateTime::REF 222103932000                       # Time in different power states
system.mem_ctrls1_0.memoryStateTime::SREF 165090559668                       # Time in different power states
system.mem_ctrls1_0.memoryStateTime::PRE_PDN 989714223164                       # Time in different power states
system.mem_ctrls1_0.memoryStateTime::ACT 1146938527605                       # Time in different power states
system.mem_ctrls1_0.memoryStateTime::ACT_PDN 3840415990721                       # Time in different power states
system.mem_ctrls1_1.actEnergy             70998053700                       # Energy for activate commands per rank (pJ)
system.mem_ctrls1_1.preEnergy             37736337705                       # Energy for precharge commands per rank (pJ)
system.mem_ctrls1_1.readEnergy            60958235520                       # Energy for read commands per rank (pJ)
system.mem_ctrls1_1.writeEnergy           32060378700                       # Energy for write commands per rank (pJ)
system.mem_ctrls1_1.refreshEnergy        524211090000.000122                       # Energy for refresh commands per rank (pJ)
system.mem_ctrls1_1.actBackEnergy        613426882980                       # Energy for active background per rank (pJ)
system.mem_ctrls1_1.preBackEnergy         17285132640                       # Energy for precharge background per rank (pJ)
system.mem_ctrls1_1.actPowerDownEnergy   1748834185500                       # Energy for active power-down per rank (pJ)
system.mem_ctrls1_1.prePowerDownEnergy   381564304800                       # Energy for precharge power-down per rank (pJ)
system.mem_ctrls1_1.selfRefreshEnergy     71848308900                       # Energy for self refresh per rank (pJ)
system.mem_ctrls1_1.totalEnergy          3559160505135                       # Total energy per rank (pJ)
system.mem_ctrls1_1.averagePower           557.480967                       # Core power per rank (mW)
system.mem_ctrls1_1.totalIdleTime        4993594034782                       # Total Idle time Per DRAM Rank
system.mem_ctrls1_1.memoryStateTime::IDLE  20191216354                       # Time in different power states
system.mem_ctrls1_1.memoryStateTime::REF 222118030000                       # Time in different power states
system.mem_ctrls1_1.memoryStateTime::SREF 164765945153                       # Time in different power states
system.mem_ctrls1_1.memoryStateTime::PRE_PDN 993655855672                       # Time in different power states
system.mem_ctrls1_1.memoryStateTime::ACT 1148458764174                       # Time in different power states
system.mem_ctrls1_1.memoryStateTime::ACT_PDN 3835172387362                       # Time in different power states
system.pwrStateResidencyTicks::UNDEFINED 26369463558582                       # Cumulative time (in ticks) in various power states
system.cpu.branchPred.lookups                       0                       # Number of BP lookups
system.cpu.branchPred.condPredicted                 0                       # Number of conditional branches predicted
system.cpu.branchPred.condIncorrect                 0                       # Number of conditional branches incorrect
system.cpu.branchPred.BTBLookups                    0                       # Number of BTB lookups
system.cpu.branchPred.BTBHits                       0                       # Number of BTB hits
system.cpu.branchPred.BTBCorrect                    0                       # Number of correct BTB predictions (this stat may not work properly.
system.cpu.branchPred.BTBHitPct                   nan                       # BTB Hit Percentage
system.cpu.branchPred.usedRAS                       0                       # Number of times the RAS was used to get a target.
system.cpu.branchPred.RASInCorrect                  0                       # Number of incorrect RAS predictions.
system.cpu.branchPred.indirectLookups               0                       # Number of indirect predictor lookups.
system.cpu.branchPred.indirectHits                  0                       # Number of indirect target hits.
system.cpu.branchPred.indirectMisses                0                       # Number of indirect misses.
system.cpu.branchPredindirectMispredicted            0                       # Number of mispredicted indirect branches.
system.cpu_voltage_domain.voltage                   1                       # Voltage in Volts
system.cpu_clk_domain.clock                       333                       # Clock period in ticks
system.cpu.dtb.fetch_hits                           0                       # ITB hits
system.cpu.dtb.fetch_misses                         0                       # ITB misses
system.cpu.dtb.fetch_acv                            0                       # ITB acv
system.cpu.dtb.fetch_accesses                       0                       # ITB accesses
system.cpu.dtb.read_hits                           14                       # DTB read hits
system.cpu.dtb.read_misses                          0                       # DTB read misses
system.cpu.dtb.read_acv                             0                       # DTB read access violations
system.cpu.dtb.read_accesses                       14                       # DTB read accesses
system.cpu.dtb.write_hits                           1                       # DTB write hits
system.cpu.dtb.write_misses                         0                       # DTB write misses
system.cpu.dtb.write_acv                            0                       # DTB write access violations
system.cpu.dtb.write_accesses                       1                       # DTB write accesses
system.cpu.dtb.data_hits                           15                       # DTB hits
system.cpu.dtb.data_misses                          0                       # DTB misses
system.cpu.dtb.data_acv                             0                       # DTB access violations
system.cpu.dtb.data_accesses                       15                       # DTB accesses
system.cpu.itb.fetch_hits                           4                       # ITB hits
system.cpu.itb.fetch_misses                         0                       # ITB misses
system.cpu.itb.fetch_acv                            0                       # ITB acv
system.cpu.itb.fetch_accesses                       4                       # ITB accesses
system.cpu.itb.read_hits                            0                       # DTB read hits
system.cpu.itb.read_misses                          0                       # DTB read misses
system.cpu.itb.read_acv                             0                       # DTB read access violations
system.cpu.itb.read_accesses                        0                       # DTB read accesses
system.cpu.itb.write_hits                           0                       # DTB write hits
system.cpu.itb.write_misses                         0                       # DTB write misses
system.cpu.itb.write_acv                            0                       # DTB write access violations
system.cpu.itb.write_accesses                       0                       # DTB write accesses
system.cpu.itb.data_hits                            0                       # DTB hits
system.cpu.itb.data_misses                          0                       # DTB misses
system.cpu.itb.data_acv                             0                       # DTB access violations
system.cpu.itb.data_accesses                        0                       # DTB accesses
system.cpu.workload.num_syscalls                    0                       # Number of system calls
system.cpu.pwrStateResidencyTicks::ON    6384362198715                       # Cumulative time (in ticks) in various power states
system.cpu.numCycles                              987                       # number of cpu cycles simulated
system.cpu.numWorkItemsStarted                      0                       # number of work items this cpu started
system.cpu.numWorkItemsCompleted                    0                       # number of work items this cpu completed
system.cpu.fetch.icacheStallCycles                 63                       # Number of cycles fetch is stalled on an Icache miss
system.cpu.fetch.Insts                             29                       # Number of instructions fetch has processed
system.cpu.fetch.Cycles                             4                       # Number of cycles fetch has run and was not squashing or blocked
system.cpu.fetch.SquashCycles                       3                       # Number of cycles fetch has spent squashing
system.cpu.fetch.PendingDrainCycles                 8                       # Number of cycles fetch has spent waiting on pipes to drain
system.cpu.fetch.CacheLines                         4                       # Number of cache lines fetched
system.cpu.fetch.IcacheSquashes                     2                       # Number of outstanding Icache misses that were squashed
system.cpu.fetch.rateDist::samples                 76                       # Number of instructions fetched each cycle (Total)
system.cpu.fetch.rateDist::mean              0.381579                       # Number of instructions fetched each cycle (Total)
system.cpu.fetch.rateDist::stdev             1.657042                       # Number of instructions fetched each cycle (Total)
system.cpu.fetch.rateDist::underflows               0      0.00%      0.00% # Number of instructions fetched each cycle (Total)
system.cpu.fetch.rateDist::0                       72     94.74%     94.74% # Number of instructions fetched each cycle (Total)
system.cpu.fetch.rateDist::1                        0      0.00%     94.74% # Number of instructions fetched each cycle (Total)
system.cpu.fetch.rateDist::2                        0      0.00%     94.74% # Number of instructions fetched each cycle (Total)
system.cpu.fetch.rateDist::3                        0      0.00%     94.74% # Number of instructions fetched each cycle (Total)
system.cpu.fetch.rateDist::4                        0      0.00%     94.74% # Number of instructions fetched each cycle (Total)
system.cpu.fetch.rateDist::5                        1      1.32%     96.05% # Number of instructions fetched each cycle (Total)
system.cpu.fetch.rateDist::6                        0      0.00%     96.05% # Number of instructions fetched each cycle (Total)
system.cpu.fetch.rateDist::7                        0      0.00%     96.05% # Number of instructions fetched each cycle (Total)
system.cpu.fetch.rateDist::8                        3      3.95%    100.00% # Number of instructions fetched each cycle (Total)
system.cpu.fetch.rateDist::overflows                0      0.00%    100.00% # Number of instructions fetched each cycle (Total)
system.cpu.fetch.rateDist::min_value                0                       # Number of instructions fetched each cycle (Total)
system.cpu.fetch.rateDist::max_value                8                       # Number of instructions fetched each cycle (Total)
system.cpu.fetch.rateDist::total                   76                       # Number of instructions fetched each cycle (Total)
system.cpu.fetch.branchRate                         0                       # Number of branch fetches per cycle
system.cpu.fetch.rate                        0.029382                       # Number of inst fetches per cycle
[...]
system.switch_cpus_1.iq.FU_type_0::IprAccess            0      0.00%    100.00% # Type of FU issued
system.switch_cpus_1.iq.FU_type_0::InstPrefetch            0      0.00%    100.00% # Type of FU issued
system.switch_cpus_1.iq.FU_type_0::total    322752085                       # Type of FU issued
system.switch_cpus_1.iq.rate                 0.355747                       # Inst issue rate
system.switch_cpus_1.iq.fu_busy_cnt          57872139                       # FU busy when requested
system.switch_cpus_1.iq.fu_busy_rate         0.179308                       # FU busy rate (busy events/executed inst)
system.switch_cpus_1.iq.int_inst_queue_reads    960325589                       # Number of integer instruction queue reads
system.switch_cpus_1.iq.int_inst_queue_writes     23717065                       # Number of integer instruction queue writes
system.switch_cpus_1.iq.int_inst_queue_wakeup_accesses     22422349                       # Number of integer instruction queue wakeup accesses
system.switch_cpus_1.iq.fp_inst_queue_reads    650356515                       # Number of floating instruction queue reads
system.switch_cpus_1.iq.fp_inst_queue_writes    190330728                       # Number of floating instruction queue writes
system.switch_cpus_1.iq.fp_inst_queue_wakeup_accesses    182416195                       # Number of floating instruction queue wakeup accesses
system.switch_cpus_1.iq.int_alu_accesses     27566704                       # Number of integer alu accesses
system.switch_cpus_1.iq.fp_alu_accesses     353057520                       # Number of floating point alu accesses
system.switch_cpus_1.iew.lsq.thread0.forwLoads      8679722                       # Number of loads that had data forwarded from stores
system.switch_cpus_1.iew.lsq.thread0.invAddrLoads            0                       # Number of loads ignored due to an invalid address
system.switch_cpus_1.iew.lsq.thread0.squashedLoads      1754425                       # Number of loads squashed
system.switch_cpus_1.iew.lsq.thread0.ignoredResponses           23                       # Number of memory responses ignored because the instruction is squashed
system.switch_cpus_1.iew.lsq.thread0.memOrderViolation         1287                       # Number of memory ordering violations
system.switch_cpus_1.iew.lsq.thread0.squashedStores       657770                       # Number of stores squashed
system.switch_cpus_1.iew.lsq.thread0.invAddrSwpfs            0                       # Number of software prefetches ignored due to an invalid address
system.switch_cpus_1.iew.lsq.thread0.blockedLoads            0                       # Number of blocked loads due to partial load-store forwarding
system.switch_cpus_1.iew.lsq.thread0.rescheduledLoads            0                       # Number of loads that were rescheduled
system.switch_cpus_1.iew.lsq.thread0.cacheBlocked    125667953                       # Number of times an access to memory failed due to the cache being blocked
system.switch_cpus_1.iew.iewIdleCycles              0                       # Number of cycles IEW is idle
system.switch_cpus_1.iew.iewSquashCycles        62285                       # Number of cycles IEW is squashing
system.switch_cpus_1.iew.iewBlockCycles     641376757                       # Number of cycles IEW is blocking
system.switch_cpus_1.iew.iewUnblockCycles     54466815                       # Number of cycles IEW is unblocking
system.switch_cpus_1.iew.iewDispatchedInsts    207023301                       # Number of instructions dispatched to IQ
system.switch_cpus_1.iew.iewDispSquashedInsts           11                       # Number of squashed instructions skipped by dispatch
system.switch_cpus_1.iew.iewDispLoadInsts     38699015                       # Number of dispatched load instructions
system.switch_cpus_1.iew.iewDispStoreInsts     18519776                       # Number of dispatched store instructions
system.switch_cpus_1.iew.iewDispNonSpecInsts            0                       # Number of dispatched non-speculative instructions
system.switch_cpus_1.iew.iewIQFullEvents      2107218                       # Number of times the IQ has become full, causing a stall
system.switch_cpus_1.iew.iewLSQFullEvents     50608231                       # Number of times the LSQ has become full, causing a stall
system.switch_cpus_1.iew.memOrderViolationEvents         1287                       # Number of memory order violations
system.switch_cpus_1.iew.predictedTakenIncorrect         1297                       # Number of branches that were predicted taken incorrectly
system.switch_cpus_1.iew.predictedNotTakenIncorrect         8909                       # Number of branches that were predicted not taken incorrectly
system.switch_cpus_1.iew.branchMispredicts        10206                       # Number of branch mispredicts detected at execute
system.switch_cpus_1.iew.iewExecutedInsts    322744684                       # Number of executed instructions
system.switch_cpus_1.iew.iewExecLoadInsts    156010370                       # Number of load instructions executed
system.switch_cpus_1.iew.iewExecSquashedInsts         7387                       # Number of squashed instructions skipped in execute
system.switch_cpus_1.iew.exec_swp                   0                       # number of swp insts executed
system.switch_cpus_1.iew.exec_nop                   1                       # number of nop insts executed
system.switch_cpus_1.iew.exec_refs          174405118                       # number of memory reference insts executed
system.switch_cpus_1.iew.exec_branches        3141559                       # Number of branches executed
system.switch_cpus_1.iew.exec_stores         18394748                       # Number of stores executed
system.switch_cpus_1.iew.exec_rate           0.355739                       # Inst execution rate
system.switch_cpus_1.iew.wb_sent            205030742                       # cumulative count of insts sent to commit
system.switch_cpus_1.iew.wb_count           204838544                       # cumulative count of insts written-back
system.switch_cpus_1.iew.wb_producers       162665743                       # num instructions producing a value
system.switch_cpus_1.iew.wb_consumers       223361203                       # num instructions consuming a value
system.switch_cpus_1.iew.wb_rate             0.225779                       # insts written-back per cycle
system.switch_cpus_1.iew.wb_fanout           0.728263                       # average fanout of values written-back
system.switch_cpus_1.commit.commitSquashedInsts      7097930                       # The number of squashed insts skipped by commit
system.switch_cpus_1.commit.branchMispredicts        10206                       # The number of times a branch was mispredicted
system.switch_cpus_1.commit.committed_per_cycle::samples    906330677                       # Number of insts commited each cycle
system.switch_cpus_1.commit.committed_per_cycle::mean     0.220670                       # Number of insts commited each cycle
system.switch_cpus_1.commit.committed_per_cycle::stdev     1.206931                       # Number of insts commited each cycle
system.switch_cpus_1.commit.committed_per_cycle::underflows            0      0.00%      0.00% # Number of insts commited each cycle
system.switch_cpus_1.commit.committed_per_cycle::0    868445374     95.82%     95.82% # Number of insts commited each cycle
system.switch_cpus_1.commit.committed_per_cycle::1      7873326      0.87%     96.69% # Number of insts commited each cycle
system.switch_cpus_1.commit.committed_per_cycle::2      1818254      0.20%     96.89% # Number of insts commited each cycle
system.switch_cpus_1.commit.committed_per_cycle::3      2079386      0.23%     97.12% # Number of insts commited each cycle
system.switch_cpus_1.commit.committed_per_cycle::4      3037070      0.34%     97.45% # Number of insts commited each cycle
system.switch_cpus_1.commit.committed_per_cycle::5      3165335      0.35%     97.80% # Number of insts commited each cycle
system.switch_cpus_1.commit.committed_per_cycle::6      1847702      0.20%     98.01% # Number of insts commited each cycle
system.switch_cpus_1.commit.committed_per_cycle::7      1322996      0.15%     98.15% # Number of insts commited each cycle
system.switch_cpus_1.commit.committed_per_cycle::8     16741234      1.85%    100.00% # Number of insts commited each cycle
system.switch_cpus_1.commit.committed_per_cycle::overflows            0      0.00%    100.00% # Number of insts commited each cycle
system.switch_cpus_1.commit.committed_per_cycle::min_value            0                       # Number of insts commited each cycle
system.switch_cpus_1.commit.committed_per_cycle::max_value            8                       # Number of insts commited each cycle
system.switch_cpus_1.commit.committed_per_cycle::total    906330677                       # Number of insts commited each cycle
system.switch_cpus_1.commit.committedInsts    200000003                       # Number of instructions committed
system.switch_cpus_1.commit.committedOps    200000003                       # Number of ops (including micro ops) committed
system.switch_cpus_1.commit.swp_count               0                       # Number of s/w prefetches committed
system.switch_cpus_1.commit.refs             54806565                       # Number of memory references committed
system.switch_cpus_1.commit.loads            36944574                       # Number of loads committed
system.switch_cpus_1.commit.membars                 0                       # Number of memory barriers committed
system.switch_cpus_1.commit.branches          3002738                       # Number of branches committed
system.switch_cpus_1.commit.fp_insts        178679405                       # Number of committed floating point instructions.
system.switch_cpus_1.commit.int_insts        74337577                       # Number of committed integer instructions.
system.switch_cpus_1.commit.function_calls            0                       # Number of function calls committed.
system.switch_cpus_1.commit.op_class_0::No_OpClass            0      0.00%      0.00% # Class of committed instruction
system.switch_cpus_1.commit.op_class_0::IntAlu     20683879     10.34%     10.34% # Class of committed instruction
system.switch_cpus_1.commit.op_class_0::IntMult            0      0.00%     10.34% # Class of committed instruction
system.switch_cpus_1.commit.op_class_0::IntDiv            0      0.00%     10.34% # Class of committed instruction
system.switch_cpus_1.commit.op_class_0::FloatAdd     77818474     38.91%     49.25% # Class of committed instruction
system.switch_cpus_1.commit.op_class_0::FloatCmp            0      0.00%     49.25% # Class of committed instruction
system.switch_cpus_1.commit.op_class_0::FloatCvt            0      0.00%     49.25% # Class of committed instruction
system.switch_cpus_1.commit.op_class_0::FloatMult     44961786     22.48%     71.73% # Class of committed instruction
system.switch_cpus_1.commit.op_class_0::FloatMultAcc            0      0.00%     71.73% # Class of committed instruction
system.switch_cpus_1.commit.op_class_0::FloatDiv      1729299      0.86%     72.60% # Class of committed instruction
system.switch_cpus_1.commit.op_class_0::FloatMisc            0      0.00%     72.60% # Class of committed instruction
system.switch_cpus_1.commit.op_class_0::FloatSqrt            0      0.00%     72.60% # Class of committed instruction
system.switch_cpus_1.commit.op_class_0::SimdAdd            0      0.00%     72.60% # Class of committed instruction
system.switch_cpus_1.commit.op_class_0::SimdAddAcc            0      0.00%     72.60% # Class of committed instruction
system.switch_cpus_1.commit.op_class_0::SimdAlu            0      0.00%     72.60% # Class of committed instruction
system.switch_cpus_1.commit.op_class_0::SimdCmp            0      0.00%     72.60% # Class of committed instruction
system.switch_cpus_1.commit.op_class_0::SimdCvt            0      0.00%     72.60% # Class of committed instruction
system.switch_cpus_1.commit.op_class_0::SimdMisc            0      0.00%     72.60% # Class of committed instruction
system.switch_cpus_1.commit.op_class_0::SimdMult            0      0.00%     72.60% # Class of committed instruction
system.switch_cpus_1.commit.op_class_0::SimdMultAcc            0      0.00%     72.60% # Class of committed instruction
system.switch_cpus_1.commit.op_class_0::SimdShift            0      0.00%     72.60% # Class of committed instruction
system.switch_cpus_1.commit.op_class_0::SimdShiftAcc            0      0.00%     72.60% # Class of committed instruction
system.switch_cpus_1.commit.op_class_0::SimdSqrt            0      0.00%     72.60% # Class of committed instruction
system.switch_cpus_1.commit.op_class_0::SimdFloatAdd            0      0.00%     72.60% # Class of committed instruction
system.switch_cpus_1.commit.op_class_0::SimdFloatAlu            0      0.00%     72.60% # Class of committed instruction
system.switch_cpus_1.commit.op_class_0::SimdFloatCmp            0      0.00%     72.60% # Class of committed instruction
system.switch_cpus_1.commit.op_class_0::SimdFloatCvt            0      0.00%     72.60% # Class of committed instruction
system.switch_cpus_1.commit.op_class_0::SimdFloatDiv            0      0.00%     72.60% # Class of committed instruction
system.switch_cpus_1.commit.op_class_0::SimdFloatMisc            0      0.00%     72.60% # Class of committed instruction
system.switch_cpus_1.commit.op_class_0::SimdFloatMult            0      0.00%     72.60% # Class of committed instruction
system.switch_cpus_1.commit.op_class_0::SimdFloatMultAcc            0      0.00%     72.60% # Class of committed instruction
system.switch_cpus_1.commit.op_class_0::SimdFloatSqrt            0      0.00%     72.60% # Class of committed instruction
system.switch_cpus_1.commit.op_class_0::MemRead       636719      0.32%     72.92% # Class of committed instruction
system.switch_cpus_1.commit.op_class_0::MemWrite            0      0.00%     72.92% # Class of committed instruction
system.switch_cpus_1.commit.op_class_0::FloatMemRead     36307855     18.15%     91.07% # Class of committed instruction
system.switch_cpus_1.commit.op_class_0::FloatMemWrite     17861991      8.93%    100.00% # Class of committed instruction
system.switch_cpus_1.commit.op_class_0::IprAccess            0      0.00%    100.00% # Class of committed instruction
system.switch_cpus_1.commit.op_class_0::InstPrefetch            0      0.00%    100.00% # Class of committed instruction
system.switch_cpus_1.commit.op_class_0::total    200000003                       # Class of committed instruction
system.switch_cpus_1.commit.bw_lim_events     16741234                       # number cycles where commit BW limit reached
system.switch_cpus_1.rob.rob_reads         1096020047                       # The number of ROB reads
system.switch_cpus_1.rob.rob_writes         415115884                       # The number of ROB writes
system.switch_cpus_1.committedInsts         200000003                       # Number of Instructions Simulated
system.switch_cpus_1.committedOps           200000003                       # Number of Ops (including micro ops) Simulated
system.switch_cpus_1.cpi                     4.536253                       # CPI: Cycles Per Instruction
system.switch_cpus_1.cpi_total               4.536253                       # CPI: Total CPI of All Threads
system.switch_cpus_1.ipc                     0.220446                       # IPC: Instructions Per Cycle
system.switch_cpus_1.ipc_total               0.220446                       # IPC: Total IPC of All Threads
system.switch_cpus_1.int_regfile_reads      195654513                       # number of integer regfile reads
system.switch_cpus_1.int_regfile_writes      19281740                       # number of integer regfile writes
system.switch_cpus_1.fp_regfile_reads       271558272                       # number of floating regfile reads
system.switch_cpus_1.fp_regfile_writes      164073353                       # number of floating regfile writes
system.tol3bus.snoop_filter.tot_requests     76288140                       # Total number of requests made to the snoop filter.
system.tol3bus.snoop_filter.hit_single_requests     38141899                       # Number of requests hitting in the snoop filter with a single holder of the requested data.
system.tol3bus.snoop_filter.hit_multi_requests            0                       # Number of requests hitting in the snoop filter with multiple (>1) holders of the requested data.
system.tol3bus.snoop_filter.tot_snoops            329                       # Total number of snoops made to the snoop filter.
system.tol3bus.snoop_filter.hit_single_snoops          329                       # Number of snoops hitting in the snoop filter with a single holder of the requested data.
system.tol3bus.snoop_filter.hit_multi_snoops            0                       # Number of snoops hitting in the snoop filter with multiple (>1) holders of the requested data.
system.tol3bus.pwrStateResidencyTicks::UNDEFINED 26369463558582                       # Cumulative time (in ticks) in various power states
system.tol3bus.trans_dist::ReadResp           9536654                       # Transaction distribution
system.tol3bus.trans_dist::WritebackDirty     53193984                       # Transaction distribution
system.tol3bus.trans_dist::CleanEvict        19051490                       # Transaction distribution
system.tol3bus.trans_dist::ReadExReq         28609587                       # Transaction distribution
system.tol3bus.trans_dist::ReadExResp        28609586                       # Transaction distribution
system.tol3bus.trans_dist::ReadSharedReq      9536654                       # Transaction distribution
system.tol3bus.pkt_count_system.cpu.l2.mem_side::system.l3.cpu_side    114434380                       # Packet count per connected master and slave (bytes)
system.tol3bus.pkt_size_system.cpu.l2.mem_side::system.l3.cpu_side   4272153664                       # Cumulative packet size per connected master and slave (bytes)
system.tol3bus.snoops                        34103575                       # Total snoops (count)
system.tol3bus.snoopTraffic                1573620672                       # Total snoop traffic (bytes)
system.tol3bus.snoop_fanout::samples         72249816                       # Request fanout histogram
system.tol3bus.snoop_fanout::mean            0.000005                       # Request fanout histogram
system.tol3bus.snoop_fanout::stdev           0.002134                       # Request fanout histogram
system.tol3bus.snoop_fanout::underflows             0      0.00%      0.00% # Request fanout histogram
system.tol3bus.snoop_fanout::0               72249487    100.00%    100.00% # Request fanout histogram
system.tol3bus.snoop_fanout::1                    329      0.00%    100.00% # Request fanout histogram
system.tol3bus.snoop_fanout::overflows              0      0.00%    100.00% # Request fanout histogram
system.tol3bus.snoop_fanout::min_value              0                       # Request fanout histogram
system.tol3bus.snoop_fanout::max_value              1                       # Request fanout histogram
system.tol3bus.snoop_fanout::total           72249816                       # Request fanout histogram
system.tol3bus.reqLayer0.occupancy        34929802233                       # Layer occupancy (ticks)
system.tol3bus.reqLayer0.utilization              0.5                       # Layer utilization (%)
system.tol3bus.respLayer0.occupancy       25405395840                       # Layer occupancy (ticks)
system.tol3bus.respLayer0.utilization             0.4                       # Layer utilization (%)

---------- End Simulation Statistics   ----------
