
---------- Begin Simulation Statistics ----------
sim_seconds                                  1.072284                       # Number of seconds simulated
sim_ticks                                1072284165477                       # Number of ticks simulated
final_tick                               31083698326527                       # Number of ticks from beginning of simulation (restored from checkpoints and never reset)
sim_freq                                 1000000000000                       # Frequency of simulated ticks
host_inst_rate                                 540152                       # Simulator instruction rate (inst/s)
host_op_rate                                   540152                       # Simulator op (including micro ops) rate (op/s)
host_tick_rate                              482663823                       # Simulator tick rate (ticks/s)
host_mem_usage                                2425136                       # Number of bytes of host memory used
host_seconds                                  2221.60                       # Real time elapsed on the host
sim_insts                                  1200000007                       # Number of instructions simulated
sim_ops                                    1200000007                       # Number of ops (including micro ops) simulated
system.voltage_domain.voltage                       1                       # Voltage in Volts
system.clk_domain.clock                          1000                       # Clock period in ticks
system.mem_ctrls0.pwrStateResidencyTicks::UNDEFINED 31083698326527                       # Cumulative time (in ticks) in various power states
system.mem_ctrls0.bytes_read::cpu.inst             64                       # Number of bytes read from this memory
system.mem_ctrls0.bytes_read::switch_cpus.inst       138368                       # Number of bytes read from this memory
system.mem_ctrls0.bytes_read::switch_cpus.data      3615040                       # Number of bytes read from this memory
system.mem_ctrls0.bytes_read::switch_cpus_1.inst       101248                       # Number of bytes read from this memory
system.mem_ctrls0.bytes_read::switch_cpus_1.data      1533632                       # Number of bytes read from this memory
system.mem_ctrls0.bytes_read::total           5388352                       # Number of bytes read from this memory
system.mem_ctrls0.bytes_inst_read::cpu.inst           64                       # Number of instructions bytes read from this memory
system.mem_ctrls0.bytes_inst_read::switch_cpus.inst       138368                       # Number of instructions bytes read from this memory
system.mem_ctrls0.bytes_inst_read::switch_cpus_1.inst       101248                       # Number of instructions bytes read from this memory
system.mem_ctrls0.bytes_inst_read::total       239680                       # Number of instructions bytes read from this memory
system.mem_ctrls0.bytes_written::writebacks       701952                       # Number of bytes written to this memory
system.mem_ctrls0.bytes_written::total         701952                       # Number of bytes written to this memory
system.mem_ctrls0.num_reads::cpu.inst               1                       # Number of read requests responded to by this memory
system.mem_ctrls0.num_reads::switch_cpus.inst         2162                       # Number of read requests responded to by this memory
system.mem_ctrls0.num_reads::switch_cpus.data        56485                       # Number of read requests responded to by this memory
system.mem_ctrls0.num_reads::switch_cpus_1.inst         1582                       # Number of read requests responded to by this memory
system.mem_ctrls0.num_reads::switch_cpus_1.data        23963                       # Number of read requests responded to by this memory
system.mem_ctrls0.num_reads::total              84193                       # Number of read requests responded to by this memory
system.mem_ctrls0.num_writes::writebacks        10968                       # Number of write requests responded to by this memory
system.mem_ctrls0.num_writes::total             10968                       # Number of write requests responded to by this memory
system.mem_ctrls0.bw_read::cpu.inst                60                       # Total read bandwidth from this memory (bytes/s)
system.mem_ctrls0.bw_read::switch_cpus.inst       129040                       # Total read bandwidth from this memory (bytes/s)
system.mem_ctrls0.bw_read::switch_cpus.data      3371345                       # Total read bandwidth from this memory (bytes/s)
system.mem_ctrls0.bw_read::switch_cpus_1.inst        94423                       # Total read bandwidth from this memory (bytes/s)
system.mem_ctrls0.bw_read::switch_cpus_1.data      1430248                       # Total read bandwidth from this memory (bytes/s)
system.mem_ctrls0.bw_read::total              5025116                       # Total read bandwidth from this memory (bytes/s)
system.mem_ctrls0.bw_inst_read::cpu.inst           60                       # Instruction read bandwidth from this memory (bytes/s)
system.mem_ctrls0.bw_inst_read::switch_cpus.inst       129040                       # Instruction read bandwidth from this memory (bytes/s)
system.mem_ctrls0.bw_inst_read::switch_cpus_1.inst        94423                       # Instruction read bandwidth from this memory (bytes/s)
system.mem_ctrls0.bw_inst_read::total          223523                       # Instruction read bandwidth from this memory (bytes/s)
system.mem_ctrls0.bw_write::writebacks         654632                       # Write bandwidth from this memory (bytes/s)
system.mem_ctrls0.bw_write::total              654632                       # Write bandwidth from this memory (bytes/s)
system.mem_ctrls0.bw_total::writebacks         654632                       # Total bandwidth to/from this memory (bytes/s)
system.mem_ctrls0.bw_total::cpu.inst               60                       # Total bandwidth to/from this memory (bytes/s)
system.mem_ctrls0.bw_total::switch_cpus.inst       129040                       # Total bandwidth to/from this memory (bytes/s)
system.mem_ctrls0.bw_total::switch_cpus.data      3371345                       # Total bandwidth to/from this memory (bytes/s)
system.mem_ctrls0.bw_total::switch_cpus_1.inst        94423                       # Total bandwidth to/from this memory (bytes/s)
system.mem_ctrls0.bw_total::switch_cpus_1.data      1430248                       # Total bandwidth to/from this memory (bytes/s)
system.mem_ctrls0.bw_total::total             5679748                       # Total bandwidth to/from this memory (bytes/s)
system.mem_ctrls0.readReqs                      84193                       # Number of read requests accepted
system.mem_ctrls0.writeReqs                     10968                       # Number of write requests accepted
system.mem_ctrls0.readBursts                    84193                       # Number of DRAM read bursts, including those serviced by the write queue
system.mem_ctrls0.writeBursts                   10968                       # Number of DRAM write bursts, including those merged in the write queue
system.mem_ctrls0.bytesReadDRAM               5385216                       # Total number of bytes read from DRAM
system.mem_ctrls0.bytesReadWrQ                   3136                       # Total number of bytes read from write queue
system.mem_ctrls0.bytesWritten                 700608                       # Total number of bytes written to DRAM
system.mem_ctrls0.bytesReadSys                5388352                       # Total read bytes from the system interface side
system.mem_ctrls0.bytesWrittenSys              701952                       # Total written bytes from the system interface side
system.mem_ctrls0.servicedByWrQ                    49                       # Number of DRAM read bursts serviced by the write queue
system.mem_ctrls0.mergedWrBursts                    0                       # Number of DRAM write bursts merged with an existing one
system.mem_ctrls0.neitherReadNorWriteReqs            0                       # Number of requests that are neither read nor write
system.mem_ctrls0.perBankRdBursts::0             5272                       # Per bank write bursts
system.mem_ctrls0.perBankRdBursts::1             5339                       # Per bank write bursts
system.mem_ctrls0.perBankRdBursts::2             5871                       # Per bank write bursts
system.mem_ctrls0.perBankRdBursts::3             5586                       # Per bank write bursts
system.mem_ctrls0.perBankRdBursts::4             5139                       # Per bank write bursts
system.mem_ctrls0.perBankRdBursts::5             5139                       # Per bank write bursts
system.mem_ctrls0.perBankRdBursts::6             4746                       # Per bank write bursts
system.mem_ctrls0.perBankRdBursts::7             4853                       # Per bank write bursts
system.mem_ctrls0.perBankRdBursts::8             4902                       # Per bank write bursts
system.mem_ctrls0.perBankRdBursts::9             5057                       # Per bank write bursts
system.mem_ctrls0.perBankRdBursts::10            4860                       # Per bank write bursts
system.mem_ctrls0.perBankRdBursts::11            4711                       # Per bank write bursts
system.mem_ctrls0.perBankRdBursts::12            5939                       # Per bank write bursts
system.mem_ctrls0.perBankRdBursts::13            5441                       # Per bank write bursts
system.mem_ctrls0.perBankRdBursts::14            5537                       # Per bank write bursts
system.mem_ctrls0.perBankRdBursts::15            5752                       # Per bank write bursts
system.mem_ctrls0.perBankWrBursts::0              695                       # Per bank write bursts
system.mem_ctrls0.perBankWrBursts::1              742                       # Per bank write bursts
system.mem_ctrls0.perBankWrBursts::2              778                       # Per bank write bursts
system.mem_ctrls0.perBankWrBursts::3              731                       # Per bank write bursts
system.mem_ctrls0.perBankWrBursts::4              677                       # Per bank write bursts
system.mem_ctrls0.perBankWrBursts::5              609                       # Per bank write bursts
system.mem_ctrls0.perBankWrBursts::6              515                       # Per bank write bursts
system.mem_ctrls0.perBankWrBursts::7              653                       # Per bank write bursts
system.mem_ctrls0.perBankWrBursts::8              620                       # Per bank write bursts
system.mem_ctrls0.perBankWrBursts::9              494                       # Per bank write bursts
system.mem_ctrls0.perBankWrBursts::10             545                       # Per bank write bursts
system.mem_ctrls0.perBankWrBursts::11             646                       # Per bank write bursts
system.mem_ctrls0.perBankWrBursts::12             909                       # Per bank write bursts
system.mem_ctrls0.perBankWrBursts::13             770                       # Per bank write bursts
system.mem_ctrls0.perBankWrBursts::14             833                       # Per bank write bursts
system.mem_ctrls0.perBankWrBursts::15             730                       # Per bank write bursts
system.mem_ctrls0.numRdRetry                        0                       # Number of times read queue was full causing retry
system.mem_ctrls0.numWrRetry                        0                       # Number of times write queue was full causing retry
system.mem_ctrls0.totGap                 1072274191794                       # Total gap between requests
system.mem_ctrls0.readPktSize::0                    0                       # Read request sizes (log2)
system.mem_ctrls0.readPktSize::1                    0                       # Read request sizes (log2)
system.mem_ctrls0.readPktSize::2                    0                       # Read request sizes (log2)
system.mem_ctrls0.readPktSize::3                    0                       # Read request sizes (log2)
system.mem_ctrls0.readPktSize::4                    0                       # Read request sizes (log2)
system.mem_ctrls0.readPktSize::5                    0                       # Read request sizes (log2)
system.mem_ctrls0.readPktSize::6                84193                       # Read request sizes (log2)
system.mem_ctrls0.writePktSize::0                   0                       # Write request sizes (log2)
system.mem_ctrls0.writePktSize::1                   0                       # Write request sizes (log2)
system.mem_ctrls0.writePktSize::2                   0                       # Write request sizes (log2)
system.mem_ctrls0.writePktSize::3                   0                       # Write request sizes (log2)
system.mem_ctrls0.writePktSize::4                   0                       # Write request sizes (log2)
system.mem_ctrls0.writePktSize::5                   0                       # Write request sizes (log2)
system.mem_ctrls0.writePktSize::6               10968                       # Write request sizes (log2)
system.mem_ctrls0.rdQLenPdf::0                  81852                       # What read queue length does an incoming req see
system.mem_ctrls0.rdQLenPdf::1                   2195                       # What read queue length does an incoming req see
system.mem_ctrls0.rdQLenPdf::2                     84                       # What read queue length does an incoming req see
system.mem_ctrls0.rdQLenPdf::3                     13                       # What read queue length does an incoming req see
system.mem_ctrls0.rdQLenPdf::4                      0                       # What read queue length does an incoming req see
system.mem_ctrls0.rdQLenPdf::5                      0                       # What read queue length does an incoming req see
system.mem_ctrls0.rdQLenPdf::6                      0                       # What read queue length does an incoming req see
system.mem_ctrls0.rdQLenPdf::7                      0                       # What read queue length does an incoming req see
system.mem_ctrls0.rdQLenPdf::8                      0                       # What read queue length does an incoming req see
system.mem_ctrls0.rdQLenPdf::9                      0                       # What read queue length does an incoming req see
system.mem_ctrls0.rdQLenPdf::10                     0                       # What read queue length does an incoming req see
system.mem_ctrls0.rdQLenPdf::11                     0                       # What read queue length does an incoming req see
system.mem_ctrls0.rdQLenPdf::12                     0                       # What read queue length does an incoming req see
system.mem_ctrls0.rdQLenPdf::13                     0                       # What read queue length does an incoming req see
system.mem_ctrls0.rdQLenPdf::14                     0                       # What read queue length does an incoming req see
system.mem_ctrls0.rdQLenPdf::15                     0                       # What read queue length does an incoming req see
system.mem_ctrls0.rdQLenPdf::16                     0                       # What read queue length does an incoming req see
system.mem_ctrls0.rdQLenPdf::17                     0                       # What read queue length does an incoming req see
system.mem_ctrls0.rdQLenPdf::18                     0                       # What read queue length does an incoming req see
system.mem_ctrls0.rdQLenPdf::19                     0                       # What read queue length does an incoming req see
system.mem_ctrls0.rdQLenPdf::20                     0                       # What read queue length does an incoming req see
system.mem_ctrls0.rdQLenPdf::21                     0                       # What read queue length does an incoming req see
system.mem_ctrls0.rdQLenPdf::22                     0                       # What read queue length does an incoming req see
system.mem_ctrls0.rdQLenPdf::23                     0                       # What read queue length does an incoming req see
system.mem_ctrls0.rdQLenPdf::24                     0                       # What read queue length does an incoming req see
system.mem_ctrls0.rdQLenPdf::25                     0                       # What read queue length does an incoming req see
system.mem_ctrls0.rdQLenPdf::26                     0                       # What read queue length does an incoming req see
system.mem_ctrls0.rdQLenPdf::27                     0                       # What read queue length does an incoming req see
system.mem_ctrls0.rdQLenPdf::28                     0                       # What read queue length does an incoming req see
system.mem_ctrls0.rdQLenPdf::29                     0                       # What read queue length does an incoming req see
system.mem_ctrls0.rdQLenPdf::30                     0                       # What read queue length does an incoming req see
system.mem_ctrls0.rdQLenPdf::31                     0                       # What read queue length does an incoming req see
system.mem_ctrls0.wrQLenPdf::0                      2                       # What write queue length does an incoming req see
system.mem_ctrls0.wrQLenPdf::1                      2                       # What write queue length does an incoming req see
system.mem_ctrls0.wrQLenPdf::2                      2                       # What write queue length does an incoming req see
system.mem_ctrls0.wrQLenPdf::3                      2                       # What write queue length does an incoming req see
system.mem_ctrls0.wrQLenPdf::4                      2                       # What write queue length does an incoming req see
system.mem_ctrls0.wrQLenPdf::5                      2                       # What write queue length does an incoming req see
system.mem_ctrls0.wrQLenPdf::6                      2                       # What write queue length does an incoming req see
system.mem_ctrls0.wrQLenPdf::7                      2                       # What write queue length does an incoming req see
system.mem_ctrls0.wrQLenPdf::8                      2                       # What write queue length does an incoming req see
system.mem_ctrls0.wrQLenPdf::9                      2                       # What write queue length does an incoming req see
system.mem_ctrls0.wrQLenPdf::10                     2                       # What write queue length does an incoming req see
system.mem_ctrls0.wrQLenPdf::11                     2                       # What write queue length does an incoming req see
system.mem_ctrls0.wrQLenPdf::12                     2                       # What write queue length does an incoming req see
system.mem_ctrls0.wrQLenPdf::13                     2                       # What write queue length does an incoming req see
system.mem_ctrls0.wrQLenPdf::14                     2                       # What write queue length does an incoming req see
system.mem_ctrls0.wrQLenPdf::15                   415                       # What write queue length does an incoming req see
system.mem_ctrls0.wrQLenPdf::16                   432                       # What write queue length does an incoming req see
system.mem_ctrls0.wrQLenPdf::17                   621                       # What write queue length does an incoming req see
system.mem_ctrls0.wrQLenPdf::18                   632                       # What write queue length does an incoming req see
system.mem_ctrls0.wrQLenPdf::19                   634                       # What write queue length does an incoming req see
system.mem_ctrls0.wrQLenPdf::20                   633                       # What write queue length does an incoming req see
system.mem_ctrls0.wrQLenPdf::21                   632                       # What write queue length does an incoming req see
system.mem_ctrls0.wrQLenPdf::22                   632                       # What write queue length does an incoming req see
system.mem_ctrls0.wrQLenPdf::23                   630                       # What write queue length does an incoming req see
system.mem_ctrls0.wrQLenPdf::24                   632                       # What write queue length does an incoming req see
system.mem_ctrls0.wrQLenPdf::25                   629                       # What write queue length does an incoming req see
system.mem_ctrls0.wrQLenPdf::26                   632                       # What write queue length does an incoming req see
system.mem_ctrls0.wrQLenPdf::27                   629                       # What write queue length does an incoming req see
system.mem_ctrls0.wrQLenPdf::28                   629                       # What write queue length does an incoming req see
system.mem_ctrls0.wrQLenPdf::29                   630                       # What write queue length does an incoming req see
system.mem_ctrls0.wrQLenPdf::30                   636                       # What write queue length does an incoming req see
system.mem_ctrls0.wrQLenPdf::31                   629                       # What write queue length does an incoming req see
system.mem_ctrls0.wrQLenPdf::32                   629                       # What write queue length does an incoming req see
system.mem_ctrls0.wrQLenPdf::33                     2                       # What write queue length does an incoming req see
system.mem_ctrls0.wrQLenPdf::34                     0                       # What write queue length does an incoming req see
system.mem_ctrls0.wrQLenPdf::35                     0                       # What write queue length does an incoming req see
system.mem_ctrls0.wrQLenPdf::36                     0                       # What write queue length does an incoming req see
system.mem_ctrls0.wrQLenPdf::37                     0                       # What write queue length does an incoming req see
system.mem_ctrls0.wrQLenPdf::38                     0                       # What write queue length does an incoming req see
system.mem_ctrls0.wrQLenPdf::39                     0                       # What write queue length does an incoming req see
system.mem_ctrls0.wrQLenPdf::40                     0                       # What write queue length does an incoming req see
system.mem_ctrls0.wrQLenPdf::41                     0                       # What write queue length does an incoming req see
system.mem_ctrls0.wrQLenPdf::42                     0                       # What write queue length does an incoming req see
system.mem_ctrls0.wrQLenPdf::43                     0                       # What write queue length does an incoming req see
system.mem_ctrls0.wrQLenPdf::44                     0                       # What write queue length does an incoming req see
system.mem_ctrls0.wrQLenPdf::45                     0                       # What write queue length does an incoming req see
system.mem_ctrls0.wrQLenPdf::46                     0                       # What write queue length does an incoming req see
system.mem_ctrls0.wrQLenPdf::47                     0                       # What write queue length does an incoming req see
system.mem_ctrls0.wrQLenPdf::48                     0                       # What write queue length does an incoming req see
system.mem_ctrls0.wrQLenPdf::49                     0                       # What write queue length does an incoming req see
system.mem_ctrls0.wrQLenPdf::50                     0                       # What write queue length does an incoming req see
system.mem_ctrls0.wrQLenPdf::51                     0                       # What write queue length does an incoming req see
system.mem_ctrls0.wrQLenPdf::52                     0                       # What write queue length does an incoming req see
system.mem_ctrls0.wrQLenPdf::53                     0                       # What write queue length does an incoming req see
system.mem_ctrls0.wrQLenPdf::54                     0                       # What write queue length does an incoming req see
system.mem_ctrls0.wrQLenPdf::55                     0                       # What write queue length does an incoming req see
system.mem_ctrls0.wrQLenPdf::56                     0                       # What write queue length does an incoming req see
system.mem_ctrls0.wrQLenPdf::57                     0                       # What write queue length does an incoming req see
system.mem_ctrls0.wrQLenPdf::58                     0                       # What write queue length does an incoming req see
system.mem_ctrls0.wrQLenPdf::59                     0                       # What write queue length does an incoming req see
system.mem_ctrls0.wrQLenPdf::60                     0                       # What write queue length does an incoming req see
system.mem_ctrls0.wrQLenPdf::61                     0                       # What write queue length does an incoming req see
system.mem_ctrls0.wrQLenPdf::62                     0                       # What write queue length does an incoming req see
system.mem_ctrls0.wrQLenPdf::63                     0                       # What write queue length does an incoming req see
system.mem_ctrls0.bytesPerActivate::samples        46137                       # Bytes accessed per row activation
system.mem_ctrls0.bytesPerActivate::mean   131.907666                       # Bytes accessed per row activation
system.mem_ctrls0.bytesPerActivate::gmean    95.084007                       # Bytes accessed per row activation
system.mem_ctrls0.bytesPerActivate::stdev   158.444599                       # Bytes accessed per row activation
system.mem_ctrls0.bytesPerActivate::0-127        31299     67.84%     67.84% # Bytes accessed per row activation
system.mem_ctrls0.bytesPerActivate::128-255         8976     19.46%     87.29% # Bytes accessed per row activation
system.mem_ctrls0.bytesPerActivate::256-383         2298      4.98%     92.28% # Bytes accessed per row activation
system.mem_ctrls0.bytesPerActivate::384-511         1365      2.96%     95.23% # Bytes accessed per row activation
system.mem_ctrls0.bytesPerActivate::512-639          805      1.74%     96.98% # Bytes accessed per row activation
system.mem_ctrls0.bytesPerActivate::640-767          492      1.07%     98.04% # Bytes accessed per row activation
system.mem_ctrls0.bytesPerActivate::768-895          332      0.72%     98.76% # Bytes accessed per row activation
system.mem_ctrls0.bytesPerActivate::896-1023          175      0.38%     99.14% # Bytes accessed per row activation
system.mem_ctrls0.bytesPerActivate::1024-1151          395      0.86%    100.00% # Bytes accessed per row activation
system.mem_ctrls0.bytesPerActivate::total        46137                       # Bytes accessed per row activation
system.mem_ctrls0.rdPerTurnAround::samples          630                       # Reads before turning the bus around for writes
system.mem_ctrls0.rdPerTurnAround::mean    133.515873                       # Reads before turning the bus around for writes
system.mem_ctrls0.rdPerTurnAround::stdev  1086.866981                       # Reads before turning the bus around for writes
system.mem_ctrls0.rdPerTurnAround::0-1023          629     99.84%     99.84% # Reads before turning the bus around for writes
system.mem_ctrls0.rdPerTurnAround::26624-27647            1      0.16%    100.00% # Reads before turning the bus around for writes
system.mem_ctrls0.rdPerTurnAround::total          630                       # Reads before turning the bus around for writes
system.mem_ctrls0.wrPerTurnAround::samples          630                       # Writes before turning the bus around for reads
system.mem_ctrls0.wrPerTurnAround::mean     17.376190                       # Writes before turning the bus around for reads
system.mem_ctrls0.wrPerTurnAround::gmean    17.347773                       # Writes before turning the bus around for reads
system.mem_ctrls0.wrPerTurnAround::stdev     0.987878                       # Writes before turning the bus around for reads
system.mem_ctrls0.wrPerTurnAround::16             199     31.59%     31.59% # Writes before turning the bus around for reads
system.mem_ctrls0.wrPerTurnAround::17              17      2.70%     34.29% # Writes before turning the bus around for reads
system.mem_ctrls0.wrPerTurnAround::18             398     63.17%     97.46% # Writes before turning the bus around for reads
system.mem_ctrls0.wrPerTurnAround::19              13      2.06%     99.52% # Writes before turning the bus around for reads
system.mem_ctrls0.wrPerTurnAround::20               2      0.32%     99.84% # Writes before turning the bus around for reads
system.mem_ctrls0.wrPerTurnAround::23               1      0.16%    100.00% # Writes before turning the bus around for reads
system.mem_ctrls0.wrPerTurnAround::total          630                       # Writes before turning the bus around for reads
system.mem_ctrls0.totQLat                  3519906792                       # Total ticks spent queuing
system.mem_ctrls0.totMemAccLat             5097606792                       # Total ticks spent from burst creation until serviced by the DRAM
system.mem_ctrls0.totBusLat                 420720000                       # Total ticks spent in databus transfers
system.mem_ctrls0.avgQLat                    41831.94                       # Average queueing delay per DRAM burst
system.mem_ctrls0.avgBusLat                   5000.00                       # Average bus latency per DRAM burst
system.mem_ctrls0.avgMemAccLat               60581.94                       # Average memory access latency per DRAM burst
system.mem_ctrls0.avgRdBW                        5.02                       # Average DRAM read bandwidth in MiByte/s
system.mem_ctrls0.avgWrBW                        0.65                       # Average achieved write bandwidth in MiByte/s
system.mem_ctrls0.avgRdBWSys                     5.03                       # Average system read bandwidth in MiByte/s
system.mem_ctrls0.avgWrBWSys                     0.65                       # Average system write bandwidth in MiByte/s
system.mem_ctrls0.peakBW                     12800.00                       # Theoretical peak bandwidth in MiByte/s
system.mem_ctrls0.busUtil                        0.04                       # Data bus utilization in percentage
system.mem_ctrls0.busUtilRead                    0.04                       # Data bus utilization in percentage for reads
system.mem_ctrls0.busUtilWrite                   0.01                       # Data bus utilization in percentage for writes
system.mem_ctrls0.avgRdQLen                      1.01                       # Average read queue length when enqueuing
system.mem_ctrls0.avgWrQLen                     17.91                       # Average write queue length when enqueuing
system.mem_ctrls0.readRowHits                   47356                       # Number of row buffer hits during reads
system.mem_ctrls0.writeRowHits                   1598                       # Number of row buffer hits during writes
system.mem_ctrls0.readRowHitRate                56.28                       # Row buffer hit rate for reads
system.mem_ctrls0.writeRowHitRate               14.57                       # Row buffer hit rate for writes
system.mem_ctrls0.avgGap                  11268000.46                       # Average gap between requests
system.mem_ctrls0.pageHitRate                   51.47                       # Row buffer hit rate, read and write combined
system.mem_ctrls0_0.actEnergy               166947480                       # Energy for activate commands per rank (pJ)
system.mem_ctrls0_0.preEnergy                88734690                       # Energy for precharge commands per rank (pJ)
system.mem_ctrls0_0.readEnergy              299487300                       # Energy for read commands per rank (pJ)
system.mem_ctrls0_0.writeEnergy              28188000                       # Energy for write commands per rank (pJ)
system.mem_ctrls0_0.refreshEnergy        6360909360.000001                       # Energy for refresh commands per rank (pJ)
system.mem_ctrls0_0.actBackEnergy          2173899060                       # Energy for active background per rank (pJ)
system.mem_ctrls0_0.preBackEnergy           312168000                       # Energy for precharge background per rank (pJ)
system.mem_ctrls0_0.actPowerDownEnergy    17805862920                       # Energy for active power-down per rank (pJ)
system.mem_ctrls0_0.prePowerDownEnergy     8332529280                       # Energy for precharge power-down per rank (pJ)
system.mem_ctrls0_0.selfRefreshEnergy    242515745070                       # Energy for self refresh per rank (pJ)
system.mem_ctrls0_0.totalEnergy          278087151240                       # Total energy per rank (pJ)
system.mem_ctrls0_0.averagePower           259.340909                       # Core power per rank (mW)
system.mem_ctrls0_0.totalIdleTime        1066688838852                       # Total Idle time Per DRAM Rank
system.mem_ctrls0_0.memoryStateTime::IDLE    566939088                       # Time in different power states
system.mem_ctrls0_0.memoryStateTime::REF   2702740000                       # Time in different power states
system.mem_ctrls0_0.memoryStateTime::SREF 1005950739477                       # Time in different power states
system.mem_ctrls0_0.memoryStateTime::PRE_PDN  21699323752                       # Time in different power states
system.mem_ctrls0_0.memoryStateTime::ACT   2316426813                       # Time in different power states
system.mem_ctrls0_0.memoryStateTime::ACT_PDN  39047996347                       # Time in different power states
system.mem_ctrls0_1.actEnergy               162470700                       # Energy for activate commands per rank (pJ)
system.mem_ctrls0_1.preEnergy                86355225                       # Energy for precharge commands per rank (pJ)
system.mem_ctrls0_1.readEnergy              301300860                       # Energy for read commands per rank (pJ)
system.mem_ctrls0_1.writeEnergy              28955340                       # Energy for write commands per rank (pJ)
system.mem_ctrls0_1.refreshEnergy        6375046080.000001                       # Energy for refresh commands per rank (pJ)
system.mem_ctrls0_1.actBackEnergy          2190323040                       # Energy for active background per rank (pJ)
system.mem_ctrls0_1.preBackEnergy           311207040                       # Energy for precharge background per rank (pJ)
system.mem_ctrls0_1.actPowerDownEnergy    17764495170                       # Energy for active power-down per rank (pJ)
system.mem_ctrls0_1.prePowerDownEnergy     8374224960                       # Energy for precharge power-down per rank (pJ)
system.mem_ctrls0_1.selfRefreshEnergy    242513004030                       # Energy for self refresh per rank (pJ)
system.mem_ctrls0_1.totalEnergy          278108783385                       # Total energy per rank (pJ)
system.mem_ctrls0_1.averagePower           259.361083                       # Core power per rank (mW)
system.mem_ctrls0_1.totalIdleTime        1066665633065                       # Total Idle time Per DRAM Rank
system.mem_ctrls0_1.memoryStateTime::IDLE    562514104                       # Time in different power states
system.mem_ctrls0_1.memoryStateTime::REF   2708846000                       # Time in different power states
system.mem_ctrls0_1.memoryStateTime::SREF 1005902160227                       # Time in different power states
system.mem_ctrls0_1.memoryStateTime::PRE_PDN  21807957104                       # Time in different power states
system.mem_ctrls0_1.memoryStateTime::ACT   2345429432                       # Time in different power states
system.mem_ctrls0_1.memoryStateTime::ACT_PDN  38957258610                       # Time in different power states
system.mem_ctrls1.pwrStateResidencyTicks::UNDEFINED 31083698326527                       # Cumulative time (in ticks) in various power states
system.mem_ctrls1.bytes_read::cpu.inst            192                       # Number of bytes read from this memory
system.mem_ctrls1.bytes_read::cpu.data            192                       # Number of bytes read from this memory
system.mem_ctrls1.bytes_read::switch_cpus.inst       136384                       # Number of bytes read from this memory
system.mem_ctrls1.bytes_read::switch_cpus.data      3620608                       # Number of bytes read from this memory
system.mem_ctrls1.bytes_read::switch_cpus_1.inst       104896                       # Number of bytes read from this memory
system.mem_ctrls1.bytes_read::switch_cpus_1.data      1548800                       # Number of bytes read from this memory
system.mem_ctrls1.bytes_read::total           5411072                       # Number of bytes read from this memory
system.mem_ctrls1.bytes_inst_read::cpu.inst          192                       # Number of instructions bytes read from this memory
system.mem_ctrls1.bytes_inst_read::switch_cpus.inst       136384                       # Number of instructions bytes read from this memory
system.mem_ctrls1.bytes_inst_read::switch_cpus_1.inst       104896                       # Number of instructions bytes read from this memory
system.mem_ctrls1.bytes_inst_read::total       241472                       # Number of instructions bytes read from this memory
system.mem_ctrls1.bytes_written::writebacks       697792                       # Number of bytes written to this memory
system.mem_ctrls1.bytes_written::total         697792                       # Number of bytes written to this memory
system.mem_ctrls1.num_reads::cpu.inst               3                       # Number of read requests responded to by this memory
system.mem_ctrls1.num_reads::cpu.data               3                       # Number of read requests responded to by this memory
system.mem_ctrls1.num_reads::switch_cpus.inst         2131                       # Number of read requests responded to by this memory
system.mem_ctrls1.num_reads::switch_cpus.data        56572                       # Number of read requests responded to by this memory
system.mem_ctrls1.num_reads::switch_cpus_1.inst         1639                       # Number of read requests responded to by this memory
system.mem_ctrls1.num_reads::switch_cpus_1.data        24200                       # Number of read requests responded to by this memory
system.mem_ctrls1.num_reads::total              84548                       # Number of read requests responded to by this memory
system.mem_ctrls1.num_writes::writebacks        10903                       # Number of write requests responded to by this memory
system.mem_ctrls1.num_writes::total             10903                       # Number of write requests responded to by this memory
system.mem_ctrls1.bw_read::cpu.inst               179                       # Total read bandwidth from this memory (bytes/s)
system.mem_ctrls1.bw_read::cpu.data               179                       # Total read bandwidth from this memory (bytes/s)
system.mem_ctrls1.bw_read::switch_cpus.inst       127190                       # Total read bandwidth from this memory (bytes/s)
system.mem_ctrls1.bw_read::switch_cpus.data      3376538                       # Total read bandwidth from this memory (bytes/s)
system.mem_ctrls1.bw_read::switch_cpus_1.inst        97825                       # Total read bandwidth from this memory (bytes/s)
system.mem_ctrls1.bw_read::switch_cpus_1.data      1444393                       # Total read bandwidth from this memory (bytes/s)
system.mem_ctrls1.bw_read::total              5046304                       # Total read bandwidth from this memory (bytes/s)
system.mem_ctrls1.bw_inst_read::cpu.inst          179                       # Instruction read bandwidth from this memory (bytes/s)
system.mem_ctrls1.bw_inst_read::switch_cpus.inst       127190                       # Instruction read bandwidth from this memory (bytes/s)
system.mem_ctrls1.bw_inst_read::switch_cpus_1.inst        97825                       # Instruction read bandwidth from this memory (bytes/s)
system.mem_ctrls1.bw_inst_read::total          225194                       # Instruction read bandwidth from this memory (bytes/s)
system.mem_ctrls1.bw_write::writebacks         650753                       # Write bandwidth from this memory (bytes/s)
system.mem_ctrls1.bw_write::total              650753                       # Write bandwidth from this memory (bytes/s)
system.mem_ctrls1.bw_total::writebacks         650753                       # Total bandwidth to/from this memory (bytes/s)
system.mem_ctrls1.bw_total::cpu.inst              179                       # Total bandwidth to/from this memory (bytes/s)
system.mem_ctrls1.bw_total::cpu.data              179                       # Total bandwidth to/from this memory (bytes/s)
system.mem_ctrls1.bw_total::switch_cpus.inst       127190                       # Total bandwidth to/from this memory (bytes/s)
system.mem_ctrls1.bw_total::switch_cpus.data      3376538                       # Total bandwidth to/from this memory (bytes/s)
system.mem_ctrls1.bw_total::switch_cpus_1.inst        97825                       # Total bandwidth to/from this memory (bytes/s)
system.mem_ctrls1.bw_total::switch_cpus_1.data      1444393                       # Total bandwidth to/from this memory (bytes/s)
system.mem_ctrls1.bw_total::total             5697057                       # Total bandwidth to/from this memory (bytes/s)
system.mem_ctrls1.readReqs                      84548                       # Number of read requests accepted
system.mem_ctrls1.writeReqs                     10903                       # Number of write requests accepted
system.mem_ctrls1.readBursts                    84548                       # Number of DRAM read bursts, including those serviced by the write queue
system.mem_ctrls1.writeBursts                   10903                       # Number of DRAM write bursts, including those merged in the write queue
system.mem_ctrls1.bytesReadDRAM               5407168                       # Total number of bytes read from DRAM
system.mem_ctrls1.bytesReadWrQ                   3904                       # Total number of bytes read from write queue
system.mem_ctrls1.bytesWritten                 696768                       # Total number of bytes written to DRAM
system.mem_ctrls1.bytesReadSys                5411072                       # Total read bytes from the system interface side
system.mem_ctrls1.bytesWrittenSys              697792                       # Total written bytes from the system interface side
system.mem_ctrls1.servicedByWrQ                    61                       # Number of DRAM read bursts serviced by the write queue
system.mem_ctrls1.mergedWrBursts                    0                       # Number of DRAM write bursts merged with an existing one
system.mem_ctrls1.neitherReadNorWriteReqs            0                       # Number of requests that are neither read nor write
system.mem_ctrls1.perBankRdBursts::0             5281                       # Per bank write bursts
system.mem_ctrls1.perBankRdBursts::1             5378                       # Per bank write bursts
system.mem_ctrls1.perBankRdBursts::2             5837                       # Per bank write bursts
system.mem_ctrls1.perBankRdBursts::3             5560                       # Per bank write bursts
system.mem_ctrls1.perBankRdBursts::4             5178                       # Per bank write bursts
system.mem_ctrls1.perBankRdBursts::5             5060                       # Per bank write bursts
system.mem_ctrls1.perBankRdBursts::6             4812                       # Per bank write bursts
system.mem_ctrls1.perBankRdBursts::7             4822                       # Per bank write bursts
system.mem_ctrls1.perBankRdBursts::8             5084                       # Per bank write bursts
system.mem_ctrls1.perBankRdBursts::9             4997                       # Per bank write bursts
system.mem_ctrls1.perBankRdBursts::10            4927                       # Per bank write bursts
system.mem_ctrls1.perBankRdBursts::11            4713                       # Per bank write bursts
system.mem_ctrls1.perBankRdBursts::12            5941                       # Per bank write bursts
system.mem_ctrls1.perBankRdBursts::13            5541                       # Per bank write bursts
system.mem_ctrls1.perBankRdBursts::14            5567                       # Per bank write bursts
system.mem_ctrls1.perBankRdBursts::15            5789                       # Per bank write bursts
system.mem_ctrls1.perBankWrBursts::0              712                       # Per bank write bursts
system.mem_ctrls1.perBankWrBursts::1              703                       # Per bank write bursts
system.mem_ctrls1.perBankWrBursts::2              735                       # Per bank write bursts
system.mem_ctrls1.perBankWrBursts::3              740                       # Per bank write bursts
system.mem_ctrls1.perBankWrBursts::4              735                       # Per bank write bursts
system.mem_ctrls1.perBankWrBursts::5              609                       # Per bank write bursts
system.mem_ctrls1.perBankWrBursts::6              488                       # Per bank write bursts
system.mem_ctrls1.perBankWrBursts::7              629                       # Per bank write bursts
system.mem_ctrls1.perBankWrBursts::8              664                       # Per bank write bursts
system.mem_ctrls1.perBankWrBursts::9              478                       # Per bank write bursts
system.mem_ctrls1.perBankWrBursts::10             579                       # Per bank write bursts
system.mem_ctrls1.perBankWrBursts::11             598                       # Per bank write bursts
system.mem_ctrls1.perBankWrBursts::12             828                       # Per bank write bursts
system.mem_ctrls1.perBankWrBursts::13             775                       # Per bank write bursts
system.mem_ctrls1.perBankWrBursts::14             826                       # Per bank write bursts
system.mem_ctrls1.perBankWrBursts::15             788                       # Per bank write bursts
system.mem_ctrls1.numRdRetry                        0                       # Number of times read queue was full causing retry
system.mem_ctrls1.numWrRetry                        0                       # Number of times write queue was full causing retry
system.mem_ctrls1.totGap                 1072282748562                       # Total gap between requests
system.mem_ctrls1.readPktSize::0                    0                       # Read request sizes (log2)
system.mem_ctrls1.readPktSize::1                    0                       # Read request sizes (log2)
system.mem_ctrls1.readPktSize::2                    0                       # Read request sizes (log2)
system.mem_ctrls1.readPktSize::3                    0                       # Read request sizes (log2)
system.mem_ctrls1.readPktSize::4                    0                       # Read request sizes (log2)
system.mem_ctrls1.readPktSize::5                    0                       # Read request sizes (log2)
system.mem_ctrls1.readPktSize::6                84548                       # Read request sizes (log2)
system.mem_ctrls1.writePktSize::0                   0                       # Write request sizes (log2)
system.mem_ctrls1.writePktSize::1                   0                       # Write request sizes (log2)
system.mem_ctrls1.writePktSize::2                   0                       # Write request sizes (log2)
system.mem_ctrls1.writePktSize::3                   0                       # Write request sizes (log2)
system.mem_ctrls1.writePktSize::4                   0                       # Write request sizes (log2)
system.mem_ctrls1.writePktSize::5                   0                       # Write request sizes (log2)
system.mem_ctrls1.writePktSize::6               10903                       # Write request sizes (log2)
system.mem_ctrls1.rdQLenPdf::0                  82183                       # What read queue length does an incoming req see
system.mem_ctrls1.rdQLenPdf::1                   2199                       # What read queue length does an incoming req see
system.mem_ctrls1.rdQLenPdf::2                     92                       # What read queue length does an incoming req see
system.mem_ctrls1.rdQLenPdf::3                     13                       # What read queue length does an incoming req see
system.mem_ctrls1.rdQLenPdf::4                      0                       # What read queue length does an incoming req see
system.mem_ctrls1.rdQLenPdf::5                      0                       # What read queue length does an incoming req see
system.mem_ctrls1.rdQLenPdf::6                      0                       # What read queue length does an incoming req see
system.mem_ctrls1.rdQLenPdf::7                      0                       # What read queue length does an incoming req see
system.mem_ctrls1.rdQLenPdf::8                      0                       # What read queue length does an incoming req see
system.mem_ctrls1.rdQLenPdf::9                      0                       # What read queue length does an incoming req see
system.mem_ctrls1.rdQLenPdf::10                     0                       # What read queue length does an incoming req see
system.mem_ctrls1.rdQLenPdf::11                     0                       # What read queue length does an incoming req see
system.mem_ctrls1.rdQLenPdf::12                     0                       # What read queue length does an incoming req see
system.mem_ctrls1.rdQLenPdf::13                     0                       # What read queue length does an incoming req see
system.mem_ctrls1.rdQLenPdf::14                     0                       # What read queue length does an incoming req see
system.mem_ctrls1.rdQLenPdf::15                     0                       # What read queue length does an incoming req see
system.mem_ctrls1.rdQLenPdf::16                     0                       # What read queue length does an incoming req see
system.mem_ctrls1.rdQLenPdf::17                     0                       # What read queue length does an incoming req see
system.mem_ctrls1.rdQLenPdf::18                     0                       # What read queue length does an incoming req see
system.mem_ctrls1.rdQLenPdf::19                     0                       # What read queue length does an incoming req see
system.mem_ctrls1.rdQLenPdf::20                     0                       # What read queue length does an incoming req see
system.mem_ctrls1.rdQLenPdf::21                     0                       # What read queue length does an incoming req see
system.mem_ctrls1.rdQLenPdf::22                     0                       # What read queue length does an incoming req see
system.mem_ctrls1.rdQLenPdf::23                     0                       # What read queue length does an incoming req see
system.mem_ctrls1.rdQLenPdf::24                     0                       # What read queue length does an incoming req see
system.mem_ctrls1.rdQLenPdf::25                     0                       # What read queue length does an incoming req see
system.mem_ctrls1.rdQLenPdf::26                     0                       # What read queue length does an incoming req see
system.mem_ctrls1.rdQLenPdf::27                     0                       # What read queue length does an incoming req see
system.mem_ctrls1.rdQLenPdf::28                     0                       # What read queue length does an incoming req see
system.mem_ctrls1.rdQLenPdf::29                     0                       # What read queue length does an incoming req see
system.mem_ctrls1.rdQLenPdf::30                     0                       # What read queue length does an incoming req see
system.mem_ctrls1.rdQLenPdf::31                     0                       # What read queue length does an incoming req see
system.mem_ctrls1.wrQLenPdf::0                      2                       # What write queue length does an incoming req see
system.mem_ctrls1.wrQLenPdf::1                      2                       # What write queue length does an incoming req see
system.mem_ctrls1.wrQLenPdf::2                      2                       # What write queue length does an incoming req see
system.mem_ctrls1.wrQLenPdf::3                      2                       # What write queue length does an incoming req see
system.mem_ctrls1.wrQLenPdf::4                      2                       # What write queue length does an incoming req see
system.mem_ctrls1.wrQLenPdf::5                      2                       # What write queue length does an incoming req see
system.mem_ctrls1.wrQLenPdf::6                      2                       # What write queue length does an incoming req see
system.mem_ctrls1.wrQLenPdf::7                      2                       # What write queue length does an incoming req see
system.mem_ctrls1.wrQLenPdf::8                      2                       # What write queue length does an incoming req see
system.mem_ctrls1.wrQLenPdf::9                      2                       # What write queue length does an incoming req see
system.mem_ctrls1.wrQLenPdf::10                     2                       # What write queue length does an incoming req see
system.mem_ctrls1.wrQLenPdf::11                     2                       # What write queue length does an incoming req see
system.mem_ctrls1.wrQLenPdf::12                     2                       # What write queue length does an incoming req see
system.mem_ctrls1.wrQLenPdf::13                     2                       # What write queue length does an incoming req see
system.mem_ctrls1.wrQLenPdf::14                     2                       # What write queue length does an incoming req see
system.mem_ctrls1.wrQLenPdf::15                   425                       # What write queue length does an incoming req see
system.mem_ctrls1.wrQLenPdf::16                   445                       # What write queue length does an incoming req see
system.mem_ctrls1.wrQLenPdf::17                   609                       # What write queue length does an incoming req see
system.mem_ctrls1.wrQLenPdf::18                   626                       # What write queue length does an incoming req see
system.mem_ctrls1.wrQLenPdf::19                   626                       # What write queue length does an incoming req see
system.mem_ctrls1.wrQLenPdf::20                   626                       # What write queue length does an incoming req see
system.mem_ctrls1.wrQLenPdf::21                   625                       # What write queue length does an incoming req see
system.mem_ctrls1.wrQLenPdf::22                   627                       # What write queue length does an incoming req see
system.mem_ctrls1.wrQLenPdf::23                   629                       # What write queue length does an incoming req see
system.mem_ctrls1.wrQLenPdf::24                   624                       # What write queue length does an incoming req see
system.mem_ctrls1.wrQLenPdf::25                   629                       # What write queue length does an incoming req see
system.mem_ctrls1.wrQLenPdf::26                   627                       # What write queue length does an incoming req see
system.mem_ctrls1.wrQLenPdf::27                   625                       # What write queue length does an incoming req see
system.mem_ctrls1.wrQLenPdf::28                   628                       # What write queue length does an incoming req see
system.mem_ctrls1.wrQLenPdf::29                   626                       # What write queue length does an incoming req see
system.mem_ctrls1.wrQLenPdf::30                   628                       # What write queue length does an incoming req see
system.mem_ctrls1.wrQLenPdf::31                   624                       # What write queue length does an incoming req see
system.mem_ctrls1.wrQLenPdf::32                   624                       # What write queue length does an incoming req see
system.mem_ctrls1.wrQLenPdf::33                     0                       # What write queue length does an incoming req see
system.mem_ctrls1.wrQLenPdf::34                     0                       # What write queue length does an incoming req see
system.mem_ctrls1.wrQLenPdf::35                     0                       # What write queue length does an incoming req see
system.mem_ctrls1.wrQLenPdf::36                     0                       # What write queue length does an incoming req see
system.mem_ctrls1.wrQLenPdf::37                     0                       # What write queue length does an incoming req see
system.mem_ctrls1.wrQLenPdf::38                     0                       # What write queue length does an incoming req see
system.mem_ctrls1.wrQLenPdf::39                     0                       # What write queue length does an incoming req see
system.mem_ctrls1.wrQLenPdf::40                     0                       # What write queue length does an incoming req see
system.mem_ctrls1.wrQLenPdf::41                     0                       # What write queue length does an incoming req see
system.mem_ctrls1.wrQLenPdf::42                     0                       # What write queue length does an incoming req see
system.mem_ctrls1.wrQLenPdf::43                     0                       # What write queue length does an incoming req see
system.mem_ctrls1.wrQLenPdf::44                     0                       # What write queue length does an incoming req see
system.mem_ctrls1.wrQLenPdf::45                     0                       # What write queue length does an incoming req see
system.mem_ctrls1.wrQLenPdf::46                     0                       # What write queue length does an incoming req see
system.mem_ctrls1.wrQLenPdf::47                     0                       # What write queue length does an incoming req see
system.mem_ctrls1.wrQLenPdf::48                     0                       # What write queue length does an incoming req see
system.mem_ctrls1.wrQLenPdf::49                     0                       # What write queue length does an incoming req see
system.mem_ctrls1.wrQLenPdf::50                     0                       # What write queue length does an incoming req see
system.mem_ctrls1.wrQLenPdf::51                     0                       # What write queue length does an incoming req see
system.mem_ctrls1.wrQLenPdf::52                     0                       # What write queue length does an incoming req see
system.mem_ctrls1.wrQLenPdf::53                     0                       # What write queue length does an incoming req see
system.mem_ctrls1.wrQLenPdf::54                     0                       # What write queue length does an incoming req see
system.mem_ctrls1.wrQLenPdf::55                     0                       # What write queue length does an incoming req see
system.mem_ctrls1.wrQLenPdf::56                     0                       # What write queue length does an incoming req see
system.mem_ctrls1.wrQLenPdf::57                     0                       # What write queue length does an incoming req see
system.mem_ctrls1.wrQLenPdf::58                     0                       # What write queue length does an incoming req see
system.mem_ctrls1.wrQLenPdf::59                     0                       # What write queue length does an incoming req see
system.mem_ctrls1.wrQLenPdf::60                     0                       # What write queue length does an incoming req see
system.mem_ctrls1.wrQLenPdf::61                     0                       # What write queue length does an incoming req see
system.mem_ctrls1.wrQLenPdf::62                     0                       # What write queue length does an incoming req see
system.mem_ctrls1.wrQLenPdf::63                     0                       # What write queue length does an incoming req see
system.mem_ctrls1.bytesPerActivate::samples        46216                       # Bytes accessed per row activation
system.mem_ctrls1.bytesPerActivate::mean   132.071317                       # Bytes accessed per row activation
system.mem_ctrls1.bytesPerActivate::gmean    95.141781                       # Bytes accessed per row activation
system.mem_ctrls1.bytesPerActivate::stdev   158.578728                       # Bytes accessed per row activation
system.mem_ctrls1.bytesPerActivate::0-127        31357     67.85%     67.85% # Bytes accessed per row activation
system.mem_ctrls1.bytesPerActivate::128-255         8959     19.39%     87.23% # Bytes accessed per row activation
system.mem_ctrls1.bytesPerActivate::256-383         2296      4.97%     92.20% # Bytes accessed per row activation
system.mem_ctrls1.bytesPerActivate::384-511         1383      2.99%     95.19% # Bytes accessed per row activation
system.mem_ctrls1.bytesPerActivate::512-639          830      1.80%     96.99% # Bytes accessed per row activation
system.mem_ctrls1.bytesPerActivate::640-767          499      1.08%     98.07% # Bytes accessed per row activation
system.mem_ctrls1.bytesPerActivate::768-895          319      0.69%     98.76% # Bytes accessed per row activation
system.mem_ctrls1.bytesPerActivate::896-1023          170      0.37%     99.13% # Bytes accessed per row activation
system.mem_ctrls1.bytesPerActivate::1024-1151          403      0.87%    100.00% # Bytes accessed per row activation
system.mem_ctrls1.bytesPerActivate::total        46216                       # Bytes accessed per row activation
system.mem_ctrls1.rdPerTurnAround::samples          625                       # Reads before turning the bus around for writes
system.mem_ctrls1.rdPerTurnAround::mean    135.176000                       # Reads before turning the bus around for writes
system.mem_ctrls1.rdPerTurnAround::stdev  1088.634995                       # Reads before turning the bus around for writes
system.mem_ctrls1.rdPerTurnAround::0-1023          624     99.84%     99.84% # Reads before turning the bus around for writes
system.mem_ctrls1.rdPerTurnAround::26624-27647            1      0.16%    100.00% # Reads before turning the bus around for writes
system.mem_ctrls1.rdPerTurnAround::total          625                       # Reads before turning the bus around for writes
system.mem_ctrls1.wrPerTurnAround::samples          625                       # Writes before turning the bus around for reads
system.mem_ctrls1.wrPerTurnAround::mean     17.419200                       # Writes before turning the bus around for reads
system.mem_ctrls1.wrPerTurnAround::gmean    17.392629                       # Writes before turning the bus around for reads
system.mem_ctrls1.wrPerTurnAround::stdev     0.950851                       # Writes before turning the bus around for reads
system.mem_ctrls1.wrPerTurnAround::16             183     29.28%     29.28% # Writes before turning the bus around for reads
system.mem_ctrls1.wrPerTurnAround::17              18      2.88%     32.16% # Writes before turning the bus around for reads
system.mem_ctrls1.wrPerTurnAround::18             405     64.80%     96.96% # Writes before turning the bus around for reads
system.mem_ctrls1.wrPerTurnAround::19              17      2.72%     99.68% # Writes before turning the bus around for reads
system.mem_ctrls1.wrPerTurnAround::20               2      0.32%    100.00% # Writes before turning the bus around for reads
system.mem_ctrls1.wrPerTurnAround::total          625                       # Writes before turning the bus around for reads
system.mem_ctrls1.totQLat                  3516557011                       # Total ticks spent queuing
system.mem_ctrls1.totMemAccLat             5100688261                       # Total ticks spent from burst creation until serviced by the DRAM
system.mem_ctrls1.totBusLat                 422435000                       # Total ticks spent in databus transfers
system.mem_ctrls1.avgQLat                    41622.46                       # Average queueing delay per DRAM burst
system.mem_ctrls1.avgBusLat                   5000.00                       # Average bus latency per DRAM burst
system.mem_ctrls1.avgMemAccLat               60372.46                       # Average memory access latency per DRAM burst
system.mem_ctrls1.avgRdBW                        5.04                       # Average DRAM read bandwidth in MiByte/s
system.mem_ctrls1.avgWrBW                        0.65                       # Average achieved write bandwidth in MiByte/s
system.mem_ctrls1.avgRdBWSys                     5.05                       # Average system read bandwidth in MiByte/s
system.mem_ctrls1.avgWrBWSys                     0.65                       # Average system write bandwidth in MiByte/s
system.mem_ctrls1.peakBW                     12800.00                       # Theoretical peak bandwidth in MiByte/s
system.mem_ctrls1.busUtil                        0.04                       # Data bus utilization in percentage
system.mem_ctrls1.busUtilRead                    0.04                       # Data bus utilization in percentage for reads
system.mem_ctrls1.busUtilWrite                   0.01                       # Data bus utilization in percentage for writes
system.mem_ctrls1.avgRdQLen                      1.00                       # Average read queue length when enqueuing
system.mem_ctrls1.avgWrQLen                     17.46                       # Average write queue length when enqueuing
system.mem_ctrls1.readRowHits                   47534                       # Number of row buffer hits during reads
system.mem_ctrls1.writeRowHits                   1622                       # Number of row buffer hits during writes
system.mem_ctrls1.readRowHitRate                56.26                       # Row buffer hit rate for reads
system.mem_ctrls1.writeRowHitRate               14.88                       # Row buffer hit rate for writes
system.mem_ctrls1.avgGap                  11233855.58                       # Average gap between requests
system.mem_ctrls1.pageHitRate                   51.53                       # Row buffer hit rate, read and write combined
system.mem_ctrls1_0.actEnergy               166162080                       # Energy for activate commands per rank (pJ)
system.mem_ctrls1_0.preEnergy                88309650                       # Energy for precharge commands per rank (pJ)
system.mem_ctrls1_0.readEnergy              299365920                       # Energy for read commands per rank (pJ)
system.mem_ctrls1_0.writeEnergy              27932220                       # Energy for write commands per rank (pJ)
system.mem_ctrls1_0.refreshEnergy        6347387280.000001                       # Energy for refresh commands per rank (pJ)
system.mem_ctrls1_0.actBackEnergy          2138589840                       # Energy for active background per rank (pJ)
system.mem_ctrls1_0.preBackEnergy           313172640                       # Energy for precharge background per rank (pJ)
system.mem_ctrls1_0.actPowerDownEnergy    17771181270                       # Energy for active power-down per rank (pJ)
system.mem_ctrls1_0.prePowerDownEnergy     8334020160                       # Energy for precharge power-down per rank (pJ)
system.mem_ctrls1_0.selfRefreshEnergy    242549567430                       # Energy for self refresh per rank (pJ)
system.mem_ctrls1_0.totalEnergy          278037153990                       # Total energy per rank (pJ)
system.mem_ctrls1_0.averagePower           259.294283                       # Core power per rank (mW)
system.mem_ctrls1_0.totalIdleTime        1066774134403                       # Total Idle time Per DRAM Rank
system.mem_ctrls1_0.memoryStateTime::IDLE    567419807                       # Time in different power states
system.mem_ctrls1_0.memoryStateTime::REF   2696972000                       # Time in different power states
system.mem_ctrls1_0.memoryStateTime::SREF 1006100394295                       # Time in different power states
system.mem_ctrls1_0.memoryStateTime::PRE_PDN  21703112951                       # Time in different power states
system.mem_ctrls1_0.memoryStateTime::ACT   2244317795                       # Time in different power states
system.mem_ctrls1_0.memoryStateTime::ACT_PDN  38971948629                       # Time in different power states
system.mem_ctrls1_1.actEnergy               163834440                       # Energy for activate commands per rank (pJ)
system.mem_ctrls1_1.preEnergy                87080070                       # Energy for precharge commands per rank (pJ)
system.mem_ctrls1_1.readEnergy              303871260                       # Energy for read commands per rank (pJ)
system.mem_ctrls1_1.writeEnergy              28897920                       # Energy for write commands per rank (pJ)
system.mem_ctrls1_1.refreshEnergy        6368899680.000001                       # Energy for refresh commands per rank (pJ)
system.mem_ctrls1_1.actBackEnergy          2220052530                       # Energy for active background per rank (pJ)
system.mem_ctrls1_1.preBackEnergy           311383680                       # Energy for precharge background per rank (pJ)
system.mem_ctrls1_1.actPowerDownEnergy    17732402460                       # Energy for active power-down per rank (pJ)
system.mem_ctrls1_1.prePowerDownEnergy     8334845760                       # Energy for precharge power-down per rank (pJ)
system.mem_ctrls1_1.selfRefreshEnergy    242540958390                       # Energy for self refresh per rank (pJ)
system.mem_ctrls1_1.totalEnergy          278093817510                       # Total energy per rank (pJ)
system.mem_ctrls1_1.averagePower           259.347126                       # Core power per rank (mW)
system.mem_ctrls1_1.totalIdleTime        1066599751002                       # Total Idle time Per DRAM Rank
system.mem_ctrls1_1.memoryStateTime::IDLE    563263582                       # Time in different power states
system.mem_ctrls1_1.memoryStateTime::REF   2706198000                       # Time in different power states
system.mem_ctrls1_1.memoryStateTime::SREF 1006009023727                       # Time in different power states
system.mem_ctrls1_1.memoryStateTime::PRE_PDN  21705348230                       # Time in different power states
system.mem_ctrls1_1.memoryStateTime::ACT   2413554873                       # Time in different power states
system.mem_ctrls1_1.memoryStateTime::ACT_PDN  38886777065                       # Time in different power states
system.pwrStateResidencyTicks::UNDEFINED 31083698326527                       # Cumulative time (in ticks) in various power states
system.cpu.branchPred.lookups                       6                       # Number of BP lookups
system.cpu.branchPred.condPredicted                 3                       # Number of conditional branches predicted
system.cpu.branchPred.condIncorrect                 3                       # Number of conditional branches incorrect
system.cpu.branchPred.BTBLookups                    3                       # Number of BTB lookups
system.cpu.branchPred.BTBHits                       0                       # Number of BTB hits
system.cpu.branchPred.BTBCorrect                    0                       # Number of correct BTB predictions (this stat may not work properly.
system.cpu.branchPred.BTBHitPct              0.000000                       # BTB Hit Percentage
system.cpu.branchPred.usedRAS                       0                       # Number of times the RAS was used to get a target.
system.cpu.branchPred.RASInCorrect                  0                       # Number of incorrect RAS predictions.
system.cpu.branchPred.indirectLookups               1                       # Number of indirect predictor lookups.
system.cpu.branchPred.indirectHits                  0                       # Number of indirect target hits.
system.cpu.branchPred.indirectMisses                1                       # Number of indirect misses.
system.cpu.branchPredindirectMispredicted            1                       # Number of mispredicted indirect branches.
system.cpu_voltage_domain.voltage                   1                       # Voltage in Volts
system.cpu_clk_domain.clock                       333                       # Clock period in ticks
system.cpu.dtb.fetch_hits                           0                       # ITB hits
system.cpu.dtb.fetch_misses                         0                       # ITB misses
system.cpu.dtb.fetch_acv                            0                       # ITB acv
system.cpu.dtb.fetch_accesses                       0                       # ITB accesses
system.cpu.dtb.read_hits                            5                       # DTB read hits
system.cpu.dtb.read_misses                          0                       # DTB read misses
system.cpu.dtb.read_acv                             0                       # DTB read access violations
system.cpu.dtb.read_accesses                        5                       # DTB read accesses
system.cpu.dtb.write_hits                           0                       # DTB write hits
system.cpu.dtb.write_misses                         0                       # DTB write misses
system.cpu.dtb.write_acv                            0                       # DTB write access violations
system.cpu.dtb.write_accesses                       0                       # DTB write accesses
system.cpu.dtb.data_hits                            5                       # DTB hits
system.cpu.dtb.data_misses                          0                       # DTB misses
system.cpu.dtb.data_acv                             0                       # DTB access violations
system.cpu.dtb.data_accesses                        5                       # DTB accesses
system.cpu.itb.fetch_hits                           7                       # ITB hits
system.cpu.itb.fetch_misses                         0                       # ITB misses
system.cpu.itb.fetch_acv                            0                       # ITB acv
system.cpu.itb.fetch_accesses                       7                       # ITB accesses
system.cpu.itb.read_hits                            0                       # DTB read hits
system.cpu.itb.read_misses                          0                       # DTB read misses
system.cpu.itb.read_acv                             0                       # DTB read access violations
system.cpu.itb.read_accesses                        0                       # DTB read accesses
system.cpu.itb.write_hits                           0                       # DTB write hits
system.cpu.itb.write_misses                         0                       # DTB write misses
system.cpu.itb.write_acv                            0                       # DTB write access violations
system.cpu.itb.write_accesses                       0                       # DTB write accesses
system.cpu.itb.data_hits                            0                       # DTB hits
system.cpu.itb.data_misses                          0                       # DTB misses
system.cpu.itb.data_acv                             0                       # DTB access violations
system.cpu.itb.data_accesses                        0                       # DTB accesses
system.cpu.workload.num_syscalls                    9                       # Number of system calls
system.cpu.pwrStateResidencyTicks::ON    1072284165477                       # Cumulative time (in ticks) in various power states
system.cpu.numCycles                              751                       # number of cpu cycles simulated
system.cpu.numWorkItemsStarted                      0                       # number of work items this cpu started
system.cpu.numWorkItemsCompleted                    0                       # number of work items this cpu completed
system.cpu.fetch.icacheStallCycles                 50                       # Number of cycles fetch is stalled on an Icache miss
system.cpu.fetch.Insts                             34                       # Number of instructions fetch has processed
system.cpu.fetch.Branches                           6                       # Number of branches that fetch encountered
system.cpu.fetch.Cycles                             5                       # Number of cycles fetch has run and was not squashing or blocked
system.cpu.fetch.SquashCycles                       9                       # Number of cycles fetch has spent squashing
system.cpu.fetch.PendingDrainCycles                 6                       # Number of cycles fetch has spent waiting on pipes to drain
system.cpu.fetch.CacheLines                         7                       # Number of cache lines fetched
system.cpu.fetch.IcacheSquashes                     4                       # Number of outstanding Icache misses that were squashed
system.cpu.fetch.rateDist::samples                 65                       # Number of instructions fetched each cycle (Total)
system.cpu.fetch.rateDist::mean              0.523077                       # Number of instructions fetched each cycle (Total)
system.cpu.fetch.rateDist::stdev             1.880057                       # Number of instructions fetched each cycle (Total)
system.cpu.fetch.rateDist::underflows               0      0.00%      0.00% # Number of instructions fetched each cycle (Total)
system.cpu.fetch.rateDist::0                       60     92.31%     92.31% # Number of instructions fetched each cycle (Total)
system.cpu.fetch.rateDist::1                        0      0.00%     92.31% # Number of instructions fetched each cycle (Total)
system.cpu.fetch.rateDist::2                        0      0.00%     92.31% # Number of instructions fetched each cycle (Total)
system.cpu.fetch.rateDist::3                        0      0.00%     92.31% # Number of instructions fetched each cycle (Total)
system.cpu.fetch.rateDist::4                        1      1.54%     93.85% # Number of instructions fetched each cycle (Total)
system.cpu.fetch.rateDist::5                        0      0.00%     93.85% # Number of instructions fetched each cycle (Total)
system.cpu.fetch.rateDist::6                        1      1.54%     95.38% # Number of instructions fetched each cycle (Total)
system.cpu.fetch.rateDist::7                        0      0.00%     95.38% # Number of instructions fetched each cycle (Total)
system.cpu.fetch.rateDist::8                        3      4.62%    100.00% # Number of instructions fetched each cycle (Total)
system.cpu.fetch.rateDist::overflows                0      0.00%    100.00% # Number of instructions fetched each cycle (Total)
system.cpu.fetch.rateDist::min_value                0                       # Number of instructions fetched each cycle (Total)
system.cpu.fetch.rateDist::max_value                8                       # Number of instructions fetched each cycle (Total)
system.cpu.fetch.rateDist::total                   65                       # Number of instructions fetched each cycle (Total)
system.cpu.fetch.branchRate                  0.007989                       # Number of branch fetches per cycle
system.cpu.fetch.rate                        0.045273                       # Number of inst fetches per cycle
system.cpu.decode.IdleCycles                       54                       # Number of cycles decode is idle
[...]
system.switch_cpus_1.iq.int_inst_queue_wakeup_accesses    235674546                       # Number of integer instruction queue wakeup accesses
system.switch_cpus_1.iq.fp_inst_queue_reads       482642                       # Number of floating instruction queue reads
system.switch_cpus_1.iq.fp_inst_queue_writes       347205                       # Number of floating instruction queue writes
system.switch_cpus_1.iq.fp_inst_queue_wakeup_accesses       213437                       # Number of floating instruction queue wakeup accesses
system.switch_cpus_1.iq.int_alu_accesses    249163822                       # Number of integer alu accesses
system.switch_cpus_1.iq.fp_alu_accesses        247984                       # Number of floating point alu accesses
system.switch_cpus_1.iew.lsq.thread0.forwLoads      8594739                       # Number of loads that had data forwarded from stores
system.switch_cpus_1.iew.lsq.thread0.invAddrLoads            0                       # Number of loads ignored due to an invalid address
system.switch_cpus_1.iew.lsq.thread0.squashedLoads     24789780                       # Number of loads squashed
system.switch_cpus_1.iew.lsq.thread0.ignoredResponses        42490                       # Number of memory responses ignored because the instruction is squashed
system.switch_cpus_1.iew.lsq.thread0.memOrderViolation        82081                       # Number of memory ordering violations
system.switch_cpus_1.iew.lsq.thread0.squashedStores     10637959                       # Number of stores squashed
system.switch_cpus_1.iew.lsq.thread0.invAddrSwpfs            0                       # Number of software prefetches ignored due to an invalid address
system.switch_cpus_1.iew.lsq.thread0.blockedLoads            0                       # Number of blocked loads due to partial load-store forwarding
system.switch_cpus_1.iew.lsq.thread0.rescheduledLoads           44                       # Number of loads that were rescheduled
system.switch_cpus_1.iew.lsq.thread0.cacheBlocked       155441                       # Number of times an access to memory failed due to the cache being blocked
system.switch_cpus_1.iew.iewIdleCycles              0                       # Number of cycles IEW is idle
system.switch_cpus_1.iew.iewSquashCycles      2086577                       # Number of cycles IEW is squashing
system.switch_cpus_1.iew.iewBlockCycles      16878227                       # Number of cycles IEW is blocking
system.switch_cpus_1.iew.iewUnblockCycles     11418383                       # Number of cycles IEW is unblocking
system.switch_cpus_1.iew.iewDispatchedInsts    280980803                       # Number of instructions dispatched to IQ
system.switch_cpus_1.iew.iewDispSquashedInsts       654968                       # Number of squashed instructions skipped by dispatch
system.switch_cpus_1.iew.iewDispLoadInsts     89897308                       # Number of dispatched load instructions
system.switch_cpus_1.iew.iewDispStoreInsts     38809920                       # Number of dispatched store instructions
system.switch_cpus_1.iew.iewDispNonSpecInsts        84787                       # Number of dispatched non-speculative instructions
system.switch_cpus_1.iew.iewIQFullEvents       348671                       # Number of times the IQ has become full, causing a stall
system.switch_cpus_1.iew.iewLSQFullEvents     11089667                       # Number of times the LSQ has become full, causing a stall
system.switch_cpus_1.iew.memOrderViolationEvents        82081                       # Number of memory order violations
system.switch_cpus_1.iew.predictedTakenIncorrect       941045                       # Number of branches that were predicted taken incorrectly
system.switch_cpus_1.iew.predictedNotTakenIncorrect       735843                       # Number of branches that were predicted not taken incorrectly
system.switch_cpus_1.iew.branchMispredicts      1676888                       # Number of branch mispredicts detected at execute
system.switch_cpus_1.iew.iewExecutedInsts    239246078                       # Number of executed instructions
system.switch_cpus_1.iew.iewExecLoadInsts     78314562                       # Number of load instructions executed
system.switch_cpus_1.iew.iewExecSquashedInsts      2933005                       # Number of squashed instructions skipped in execute
system.switch_cpus_1.iew.exec_swp                   0                       # number of swp insts executed
system.switch_cpus_1.iew.exec_nop             6954697                       # number of nop insts executed
system.switch_cpus_1.iew.exec_refs          112487600                       # number of memory reference insts executed
system.switch_cpus_1.iew.exec_branches       39864561                       # Number of branches executed
system.switch_cpus_1.iew.exec_stores         34173038                       # Number of stores executed
system.switch_cpus_1.iew.exec_rate           1.206371                       # Inst execution rate
system.switch_cpus_1.iew.wb_sent            237802710                       # cumulative count of insts sent to commit
system.switch_cpus_1.iew.wb_count           235887983                       # cumulative count of insts written-back
system.switch_cpus_1.iew.wb_producers       131504880                       # num instructions producing a value
system.switch_cpus_1.iew.wb_consumers       175058188                       # num instructions consuming a value
system.switch_cpus_1.iew.wb_rate             1.189439                       # insts written-back per cycle
system.switch_cpus_1.iew.wb_fanout           0.751207                       # average fanout of values written-back
system.switch_cpus_1.commit.commitSquashedInsts     68136573                       # The number of squashed insts skipped by commit
system.switch_cpus_1.commit.commitNonSpecStalls       131982                       # The number of times commit has been forced to stall to communicate backwards
system.switch_cpus_1.commit.branchMispredicts      1466778                       # The number of times a branch was mispredicted
system.switch_cpus_1.commit.committed_per_cycle::samples    175529701                       # Number of insts commited each cycle
system.switch_cpus_1.commit.committed_per_cycle::mean     1.166583                       # Number of insts commited each cycle
system.switch_cpus_1.commit.committed_per_cycle::stdev     2.253421                       # Number of insts commited each cycle
system.switch_cpus_1.commit.committed_per_cycle::underflows            0      0.00%      0.00% # Number of insts commited each cycle
system.switch_cpus_1.commit.committed_per_cycle::0    114178139     65.05%     65.05% # Number of insts commited each cycle
system.switch_cpus_1.commit.committed_per_cycle::1     25457356     14.50%     79.55% # Number of insts commited each cycle
system.switch_cpus_1.commit.committed_per_cycle::2      9018004      5.14%     84.69% # Number of insts commited each cycle
system.switch_cpus_1.commit.committed_per_cycle::3      4129949      2.35%     87.04% # Number of insts commited each cycle
system.switch_cpus_1.commit.committed_per_cycle::4      3880665      2.21%     89.25% # Number of insts commited each cycle
system.switch_cpus_1.commit.committed_per_cycle::5      3299754      1.88%     91.13% # Number of insts commited each cycle
system.switch_cpus_1.commit.committed_per_cycle::6      2813428      1.60%     92.73% # Number of insts commited each cycle
system.switch_cpus_1.commit.committed_per_cycle::7      2034412      1.16%     93.89% # Number of insts commited each cycle
system.switch_cpus_1.commit.committed_per_cycle::8     10717994      6.11%    100.00% # Number of insts commited each cycle
system.switch_cpus_1.commit.committed_per_cycle::overflows            0      0.00%    100.00% # Number of insts commited each cycle
system.switch_cpus_1.commit.committed_per_cycle::min_value            0                       # Number of insts commited each cycle
system.switch_cpus_1.commit.committed_per_cycle::max_value            8                       # Number of insts commited each cycle
system.switch_cpus_1.commit.committed_per_cycle::total    175529701                       # Number of insts commited each cycle
system.switch_cpus_1.commit.committedInsts    204770045                       # Number of instructions committed
system.switch_cpus_1.commit.committedOps    204770045                       # Number of ops (including micro ops) committed
system.switch_cpus_1.commit.swp_count               0                       # Number of s/w prefetches committed
system.switch_cpus_1.commit.refs             93279484                       # Number of memory references committed
system.switch_cpus_1.commit.loads            65107527                       # Number of loads committed
system.switch_cpus_1.commit.membars             65988                       # Number of memory barriers committed
system.switch_cpus_1.commit.branches         33714070                       # Number of branches committed
system.switch_cpus_1.commit.fp_insts           159557                       # Number of committed floating point instructions.
system.switch_cpus_1.commit.int_insts       196778837                       # Number of committed integer instructions.
system.switch_cpus_1.commit.function_calls      2336737                       # Number of function calls committed.
system.switch_cpus_1.commit.op_class_0::No_OpClass      4770592      2.33%      2.33% # Class of committed instruction
system.switch_cpus_1.commit.op_class_0::IntAlu    106615487     52.07%     54.40% # Class of committed instruction
system.switch_cpus_1.commit.op_class_0::IntMult         2354      0.00%     54.40% # Class of committed instruction
system.switch_cpus_1.commit.op_class_0::IntDiv            0      0.00%     54.40% # Class of committed instruction
system.switch_cpus_1.commit.op_class_0::FloatAdd        29677      0.01%     54.41% # Class of committed instruction
system.switch_cpus_1.commit.op_class_0::FloatCmp         2802      0.00%     54.41% # Class of committed instruction
system.switch_cpus_1.commit.op_class_0::FloatCvt         2757      0.00%     54.41% # Class of committed instruction
system.switch_cpus_1.commit.op_class_0::FloatMult          480      0.00%     54.41% # Class of committed instruction
system.switch_cpus_1.commit.op_class_0::FloatMultAcc            0      0.00%     54.41% # Class of committed instruction
system.switch_cpus_1.commit.op_class_0::FloatDiv          424      0.00%     54.41% # Class of committed instruction
system.switch_cpus_1.commit.op_class_0::FloatMisc            0      0.00%     54.41% # Class of committed instruction
system.switch_cpus_1.commit.op_class_0::FloatSqrt            0      0.00%     54.41% # Class of committed instruction
system.switch_cpus_1.commit.op_class_0::SimdAdd            0      0.00%     54.41% # Class of committed instruction
system.switch_cpus_1.commit.op_class_0::SimdAddAcc            0      0.00%     54.41% # Class of committed instruction
system.switch_cpus_1.commit.op_class_0::SimdAlu            0      0.00%     54.41% # Class of committed instruction
system.switch_cpus_1.commit.op_class_0::SimdCmp            0      0.00%     54.41% # Class of committed instruction
system.switch_cpus_1.commit.op_class_0::SimdCvt            0      0.00%     54.41% # Class of committed instruction
system.switch_cpus_1.commit.op_class_0::SimdMisc            0      0.00%     54.41% # Class of committed instruction
system.switch_cpus_1.commit.op_class_0::SimdMult            0      0.00%     54.41% # Class of committed instruction
system.switch_cpus_1.commit.op_class_0::SimdMultAcc            0      0.00%     54.41% # Class of committed instruction
system.switch_cpus_1.commit.op_class_0::SimdShift            0      0.00%     54.41% # Class of committed instruction
system.switch_cpus_1.commit.op_class_0::SimdShiftAcc            0      0.00%     54.41% # Class of committed instruction
system.switch_cpus_1.commit.op_class_0::SimdSqrt            0      0.00%     54.41% # Class of committed instruction
system.switch_cpus_1.commit.op_class_0::SimdFloatAdd            0      0.00%     54.41% # Class of committed instruction
system.switch_cpus_1.commit.op_class_0::SimdFloatAlu            0      0.00%     54.41% # Class of committed instruction
system.switch_cpus_1.commit.op_class_0::SimdFloatCmp            0      0.00%     54.41% # Class of committed instruction
system.switch_cpus_1.commit.op_class_0::SimdFloatCvt            0      0.00%     54.41% # Class of committed instruction
system.switch_cpus_1.commit.op_class_0::SimdFloatDiv            0      0.00%     54.41% # Class of committed instruction
system.switch_cpus_1.commit.op_class_0::SimdFloatMisc            0      0.00%     54.41% # Class of committed instruction
system.switch_cpus_1.commit.op_class_0::SimdFloatMult            0      0.00%     54.41% # Class of committed instruction
system.switch_cpus_1.commit.op_class_0::SimdFloatMultAcc            0      0.00%     54.41% # Class of committed instruction
system.switch_cpus_1.commit.op_class_0::SimdFloatSqrt            0      0.00%     54.41% # Class of committed instruction
system.switch_cpus_1.commit.op_class_0::MemRead     65122112     31.80%     86.22% # Class of committed instruction
system.switch_cpus_1.commit.op_class_0::MemWrite     28099943     13.72%     99.94% # Class of committed instruction
system.switch_cpus_1.commit.op_class_0::FloatMemRead        51403      0.03%     99.96% # Class of committed instruction
system.switch_cpus_1.commit.op_class_0::FloatMemWrite        72014      0.04%    100.00% # Class of committed instruction
system.switch_cpus_1.commit.op_class_0::IprAccess            0      0.00%    100.00% # Class of committed instruction
system.switch_cpus_1.commit.op_class_0::InstPrefetch            0      0.00%    100.00% # Class of committed instruction
system.switch_cpus_1.commit.op_class_0::total    204770045                       # Class of committed instruction
system.switch_cpus_1.commit.bw_lim_events     10717994                       # number cycles where commit BW limit reached
system.switch_cpus_1.rob.rob_reads          430492496                       # The number of ROB reads
system.switch_cpus_1.rob.rob_writes         555816934                       # The number of ROB writes
system.switch_cpus_1.timesIdled               1312046                       # Number of times that the entire CPU went into an idle state and unscheduled itself
system.switch_cpus_1.idleCycles              12808165                       # Total number of cycles that the CPU has spent unscheduled due to idling
system.switch_cpus_1.committedInsts         200000002                       # Number of Instructions Simulated
system.switch_cpus_1.committedOps           200000002                       # Number of Ops (including micro ops) Simulated
system.switch_cpus_1.cpi                     0.991594                       # CPI: Cycles Per Instruction
system.switch_cpus_1.cpi_total               0.991594                       # CPI: Total CPI of All Threads
system.switch_cpus_1.ipc                     1.008478                       # IPC: Instructions Per Cycle
system.switch_cpus_1.ipc_total               1.008478                       # IPC: Total IPC of All Threads
system.switch_cpus_1.int_regfile_reads      304280341                       # number of integer regfile reads
system.switch_cpus_1.int_regfile_writes     165713130                       # number of integer regfile writes
system.switch_cpus_1.fp_regfile_reads          181486                       # number of floating regfile reads
system.switch_cpus_1.fp_regfile_writes         105839                       # number of floating regfile writes
system.switch_cpus_1.misc_regfile_reads        151468                       # number of misc regfile reads
system.switch_cpus_1.misc_regfile_writes       132243                       # number of misc regfile writes
system.tol3bus.snoop_filter.tot_requests      1297615                       # Total number of requests made to the snoop filter.
system.tol3bus.snoop_filter.hit_single_requests       646774                       # Number of requests hitting in the snoop filter with a single holder of the requested data.
system.tol3bus.snoop_filter.hit_multi_requests            0                       # Number of requests hitting in the snoop filter with multiple (>1) holders of the requested data.
system.tol3bus.snoop_filter.tot_snoops            643                       # Total number of snoops made to the snoop filter.
system.tol3bus.snoop_filter.hit_single_snoops          643                       # Number of snoops hitting in the snoop filter with a single holder of the requested data.
system.tol3bus.snoop_filter.hit_multi_snoops            0                       # Number of snoops hitting in the snoop filter with multiple (>1) holders of the requested data.
system.tol3bus.pwrStateResidencyTicks::UNDEFINED 31083698326527                       # Cumulative time (in ticks) in various power states
system.tol3bus.trans_dist::ReadResp            579863                       # Transaction distribution
system.tol3bus.trans_dist::WritebackDirty       196958                       # Transaction distribution
system.tol3bus.trans_dist::CleanEvict          552985                       # Transaction distribution
system.tol3bus.trans_dist::UpgradeReq               2                       # Transaction distribution
system.tol3bus.trans_dist::UpgradeResp              2                       # Transaction distribution
system.tol3bus.trans_dist::ReadExReq            70978                       # Transaction distribution
system.tol3bus.trans_dist::ReadExResp           70978                       # Transaction distribution
system.tol3bus.trans_dist::ReadSharedReq       579863                       # Transaction distribution
system.tol3bus.pkt_count_system.cpu.l2.mem_side::system.l3.cpu_side      1948458                       # Packet count per connected master and slave (bytes)
system.tol3bus.pkt_size_system.cpu.l2.mem_side::system.l3.cpu_side     52859392                       # Cumulative packet size per connected master and slave (bytes)
system.tol3bus.snoops                          103171                       # Total snoops (count)
system.tol3bus.snoopTraffic                   1399744                       # Total snoop traffic (bytes)
system.tol3bus.snoop_fanout::samples           754014                       # Request fanout histogram
system.tol3bus.snoop_fanout::mean            0.000853                       # Request fanout histogram
system.tol3bus.snoop_fanout::stdev           0.029190                       # Request fanout histogram
system.tol3bus.snoop_fanout::underflows             0      0.00%      0.00% # Request fanout histogram
system.tol3bus.snoop_fanout::0                 753371     99.91%     99.91% # Request fanout histogram
system.tol3bus.snoop_fanout::1                    643      0.09%    100.00% # Request fanout histogram
system.tol3bus.snoop_fanout::overflows              0      0.00%    100.00% # Request fanout histogram
system.tol3bus.snoop_fanout::min_value              0                       # Request fanout histogram
system.tol3bus.snoop_fanout::max_value              1                       # Request fanout histogram
system.tol3bus.snoop_fanout::total             754014                       # Request fanout histogram
system.tol3bus.reqLayer0.occupancy          490409766                       # Layer occupancy (ticks)
system.tol3bus.reqLayer0.utilization              0.0                       # Layer utilization (%)
system.tol3bus.respLayer0.occupancy         433460772                       # Layer occupancy (ticks)
system.tol3bus.respLayer0.utilization             0.0                       # Layer utilization (%)

---------- End Simulation Statistics   ----------
