
---------- Begin Simulation Statistics ----------
sim_seconds                                  2.492859                       # Number of seconds simulated
sim_ticks                                2492859035943                       # Number of ticks simulated
final_tick                               129445855560675                       # Number of ticks from beginning of simulation (restored from checkpoints and never reset)
sim_freq                                 1000000000000                       # Frequency of simulated ticks
host_inst_rate                                 197710                       # Simulator instruction rate (inst/s)
host_op_rate                                   197710                       # Simulator op (including micro ops) rate (op/s)
host_tick_rate                              410720240                       # Simulator tick rate (ticks/s)
host_mem_usage                                2436108                       # Number of bytes of host memory used
host_seconds                                  6069.48                       # Real time elapsed on the host
sim_insts                                  1200000003                       # Number of instructions simulated
sim_ops                                    1200000003                       # Number of ops (including micro ops) simulated
system.voltage_domain.voltage                       1                       # Voltage in Volts
system.clk_domain.clock                          1000                       # Clock period in ticks
system.mem_ctrls0.pwrStateResidencyTicks::UNDEFINED 129445855560675                       # Cumulative time (in ticks) in various power states
system.mem_ctrls0.bytes_read::cpu.inst            128                       # Number of bytes read from this memory
system.mem_ctrls0.bytes_read::switch_cpus.inst        73472                       # Number of bytes read from this memory
system.mem_ctrls0.bytes_read::switch_cpus.data    385192960                       # Number of bytes read from this memory
system.mem_ctrls0.bytes_read::switch_cpus_1.inst        27648                       # Number of bytes read from this memory
system.mem_ctrls0.bytes_read::switch_cpus_1.data     87157056                       # Number of bytes read from this memory
system.mem_ctrls0.bytes_read::total         472451264                       # Number of bytes read from this memory
system.mem_ctrls0.bytes_inst_read::cpu.inst          128                       # Number of instructions bytes read from this memory
system.mem_ctrls0.bytes_inst_read::switch_cpus.inst        73472                       # Number of instructions bytes read from this memory
system.mem_ctrls0.bytes_inst_read::switch_cpus_1.inst        27648                       # Number of instructions bytes read from this memory
system.mem_ctrls0.bytes_inst_read::total       101248                       # Number of instructions bytes read from this memory
system.mem_ctrls0.bytes_written::writebacks    198494720                       # Number of bytes written to this memory
system.mem_ctrls0.bytes_written::total      198494720                       # Number of bytes written to this memory
system.mem_ctrls0.num_reads::cpu.inst               2                       # Number of read requests responded to by this memory
system.mem_ctrls0.num_reads::switch_cpus.inst         1148                       # Number of read requests responded to by this memory
system.mem_ctrls0.num_reads::switch_cpus.data      6018640                       # Number of read requests responded to by this memory
system.mem_ctrls0.num_reads::switch_cpus_1.inst          432                       # Number of read requests responded to by this memory
system.mem_ctrls0.num_reads::switch_cpus_1.data      1361829                       # Number of read requests responded to by this memory
system.mem_ctrls0.num_reads::total            7382051                       # Number of read requests responded to by this memory
system.mem_ctrls0.num_writes::writebacks      3101480                       # Number of write requests responded to by this memory
system.mem_ctrls0.num_writes::total           3101480                       # Number of write requests responded to by this memory
system.mem_ctrls0.bw_read::cpu.inst                51                       # Total read bandwidth from this memory (bytes/s)
system.mem_ctrls0.bw_read::switch_cpus.inst        29473                       # Total read bandwidth from this memory (bytes/s)
system.mem_ctrls0.bw_read::switch_cpus.data    154518549                       # Total read bandwidth from this memory (bytes/s)
system.mem_ctrls0.bw_read::switch_cpus_1.inst        11091                       # Total read bandwidth from this memory (bytes/s)
system.mem_ctrls0.bw_read::switch_cpus_1.data     34962689                       # Total read bandwidth from this memory (bytes/s)
system.mem_ctrls0.bw_read::total            189521853                       # Total read bandwidth from this memory (bytes/s)
system.mem_ctrls0.bw_inst_read::cpu.inst           51                       # Instruction read bandwidth from this memory (bytes/s)
system.mem_ctrls0.bw_inst_read::switch_cpus.inst        29473                       # Instruction read bandwidth from this memory (bytes/s)
system.mem_ctrls0.bw_inst_read::switch_cpus_1.inst        11091                       # Instruction read bandwidth from this memory (bytes/s)
system.mem_ctrls0.bw_inst_read::total           40615                       # Instruction read bandwidth from this memory (bytes/s)
system.mem_ctrls0.bw_write::writebacks       79625329                       # Write bandwidth from this memory (bytes/s)
system.mem_ctrls0.bw_write::total            79625329                       # Write bandwidth from this memory (bytes/s)
system.mem_ctrls0.bw_total::writebacks       79625329                       # Total bandwidth to/from this memory (bytes/s)
system.mem_ctrls0.bw_total::cpu.inst               51                       # Total bandwidth to/from this memory (bytes/s)
system.mem_ctrls0.bw_total::switch_cpus.inst        29473                       # Total bandwidth to/from this memory (bytes/s)
system.mem_ctrls0.bw_total::switch_cpus.data    154518549                       # Total bandwidth to/from this memory (bytes/s)
system.mem_ctrls0.bw_total::switch_cpus_1.inst        11091                       # Total bandwidth to/from this memory (bytes/s)
system.mem_ctrls0.bw_total::switch_cpus_1.data     34962689                       # Total bandwidth to/from this memory (bytes/s)
system.mem_ctrls0.bw_total::total           269147182                       # Total bandwidth to/from this memory (bytes/s)
system.mem_ctrls0.readReqs                    7382051                       # Number of read requests accepted
system.mem_ctrls0.writeReqs                   3101480                       # Number of write requests accepted
system.mem_ctrls0.readBursts                  7382051                       # Number of DRAM read bursts, including those serviced by the write queue
system.mem_ctrls0.writeBursts                 3101480                       # Number of DRAM write bursts, including those merged in the write queue
system.mem_ctrls0.bytesReadDRAM             472183296                       # Total number of bytes read from DRAM
system.mem_ctrls0.bytesReadWrQ                 267968                       # Total number of bytes read from write queue
system.mem_ctrls0.bytesWritten              198493312                       # Total number of bytes written to DRAM
system.mem_ctrls0.bytesReadSys              472451264                       # Total read bytes from the system interface side
system.mem_ctrls0.bytesWrittenSys           198494720                       # Total written bytes from the system interface side
system.mem_ctrls0.servicedByWrQ                  4187                       # Number of DRAM read bursts serviced by the write queue
system.mem_ctrls0.mergedWrBursts                    0                       # Number of DRAM write bursts merged with an existing one
system.mem_ctrls0.neitherReadNorWriteReqs            0                       # Number of requests that are neither read nor write
system.mem_ctrls0.perBankRdBursts::0           455055                       # Per bank write bursts
system.mem_ctrls0.perBankRdBursts::1           467664                       # Per bank write bursts
system.mem_ctrls0.perBankRdBursts::2           465825                       # Per bank write bursts
system.mem_ctrls0.perBankRdBursts::3           447193                       # Per bank write bursts
system.mem_ctrls0.perBankRdBursts::4           446173                       # Per bank write bursts
system.mem_ctrls0.perBankRdBursts::5           466644                       # Per bank write bursts
system.mem_ctrls0.perBankRdBursts::6           477248                       # Per bank write bursts
system.mem_ctrls0.perBankRdBursts::7           474526                       # Per bank write bursts
system.mem_ctrls0.perBankRdBursts::8           484693                       # Per bank write bursts
system.mem_ctrls0.perBankRdBursts::9           463957                       # Per bank write bursts
system.mem_ctrls0.perBankRdBursts::10          449082                       # Per bank write bursts
system.mem_ctrls0.perBankRdBursts::11          446936                       # Per bank write bursts
system.mem_ctrls0.perBankRdBursts::12          443658                       # Per bank write bursts
system.mem_ctrls0.perBankRdBursts::13          464564                       # Per bank write bursts
system.mem_ctrls0.perBankRdBursts::14          465985                       # Per bank write bursts
system.mem_ctrls0.perBankRdBursts::15          458661                       # Per bank write bursts
system.mem_ctrls0.perBankWrBursts::0           192616                       # Per bank write bursts
system.mem_ctrls0.perBankWrBursts::1           192942                       # Per bank write bursts
system.mem_ctrls0.perBankWrBursts::2           196626                       # Per bank write bursts
system.mem_ctrls0.perBankWrBursts::3           184392                       # Per bank write bursts
system.mem_ctrls0.perBankWrBursts::4           186523                       # Per bank write bursts
system.mem_ctrls0.perBankWrBursts::5           196000                       # Per bank write bursts
system.mem_ctrls0.perBankWrBursts::6           204684                       # Per bank write bursts
system.mem_ctrls0.perBankWrBursts::7           202121                       # Per bank write bursts
system.mem_ctrls0.perBankWrBursts::8           203828                       # Per bank write bursts
system.mem_ctrls0.perBankWrBursts::9           192669                       # Per bank write bursts
system.mem_ctrls0.perBankWrBursts::10          191015                       # Per bank write bursts
system.mem_ctrls0.perBankWrBursts::11          192271                       # Per bank write bursts
system.mem_ctrls0.perBankWrBursts::12          183867                       # Per bank write bursts
system.mem_ctrls0.perBankWrBursts::13          193364                       # Per bank write bursts
system.mem_ctrls0.perBankWrBursts::14          197692                       # Per bank write bursts
system.mem_ctrls0.perBankWrBursts::15          190848                       # Per bank write bursts
system.mem_ctrls0.numRdRetry                        0                       # Number of times read queue was full causing retry
system.mem_ctrls0.numWrRetry                        0                       # Number of times write queue was full causing retry
system.mem_ctrls0.totGap                 2492858923722                       # Total gap between requests
system.mem_ctrls0.readPktSize::0                    0                       # Read request sizes (log2)
system.mem_ctrls0.readPktSize::1                    0                       # Read request sizes (log2)
system.mem_ctrls0.readPktSize::2                    0                       # Read request sizes (log2)
system.mem_ctrls0.readPktSize::3                    0                       # Read request sizes (log2)
system.mem_ctrls0.readPktSize::4                    0                       # Read request sizes (log2)
system.mem_ctrls0.readPktSize::5                    0                       # Read request sizes (log2)
system.mem_ctrls0.readPktSize::6              7382051                       # Read request sizes (log2)
system.mem_ctrls0.writePktSize::0                   0                       # Write request sizes (log2)
system.mem_ctrls0.writePktSize::1                   0                       # Write request sizes (log2)
system.mem_ctrls0.writePktSize::2                   0                       # Write request sizes (log2)
system.mem_ctrls0.writePktSize::3                   0                       # Write request sizes (log2)
system.mem_ctrls0.writePktSize::4                   0                       # Write request sizes (log2)
system.mem_ctrls0.writePktSize::5                   0                       # Write request sizes (log2)
system.mem_ctrls0.writePktSize::6             3101480                       # Write request sizes (log2)
system.mem_ctrls0.rdQLenPdf::0                7081964                       # What read queue length does an incoming req see
system.mem_ctrls0.rdQLenPdf::1                 261351                       # What read queue length does an incoming req see
system.mem_ctrls0.rdQLenPdf::2                  32402                       # What read queue length does an incoming req see
system.mem_ctrls0.rdQLenPdf::3                   2146                       # What read queue length does an incoming req see
system.mem_ctrls0.rdQLenPdf::4                      1                       # What read queue length does an incoming req see
system.mem_ctrls0.rdQLenPdf::5                      0                       # What read queue length does an incoming req see
system.mem_ctrls0.rdQLenPdf::6                      0                       # What read queue length does an incoming req see
system.mem_ctrls0.rdQLenPdf::7                      0                       # What read queue length does an incoming req see
system.mem_ctrls0.rdQLenPdf::8                      0                       # What read queue length does an incoming req see
system.mem_ctrls0.rdQLenPdf::9                      0                       # What read queue length does an incoming req see
system.mem_ctrls0.rdQLenPdf::10                     0                       # What read queue length does an incoming req see
system.mem_ctrls0.rdQLenPdf::11                     0                       # What read queue length does an incoming req see
system.mem_ctrls0.rdQLenPdf::12                     0                       # What read queue length does an incoming req see
system.mem_ctrls0.rdQLenPdf::13                     0                       # What read queue length does an incoming req see
system.mem_ctrls0.rdQLenPdf::14                     0                       # What read queue length does an incoming req see
system.mem_ctrls0.rdQLenPdf::15                     0                       # What read queue length does an incoming req see
system.mem_ctrls0.rdQLenPdf::16                     0                       # What read queue length does an incoming req see
system.mem_ctrls0.rdQLenPdf::17                     0                       # What read queue length does an incoming req see
system.mem_ctrls0.rdQLenPdf::18                     0                       # What read queue length does an incoming req see
system.mem_ctrls0.rdQLenPdf::19                     0                       # What read queue length does an incoming req see
system.mem_ctrls0.rdQLenPdf::20                     0                       # What read queue length does an incoming req see
system.mem_ctrls0.rdQLenPdf::21                     0                       # What read queue length does an incoming req see
system.mem_ctrls0.rdQLenPdf::22                     0                       # What read queue length does an incoming req see
system.mem_ctrls0.rdQLenPdf::23                     0                       # What read queue length does an incoming req see
system.mem_ctrls0.rdQLenPdf::24                     0                       # What read queue length does an incoming req see
system.mem_ctrls0.rdQLenPdf::25                     0                       # What read queue length does an incoming req see
system.mem_ctrls0.rdQLenPdf::26                     0                       # What read queue length does an incoming req see
system.mem_ctrls0.rdQLenPdf::27                     0                       # What read queue length does an incoming req see
system.mem_ctrls0.rdQLenPdf::28                     0                       # What read queue length does an incoming req see
system.mem_ctrls0.rdQLenPdf::29                     0                       # What read queue length does an incoming req see
system.mem_ctrls0.rdQLenPdf::30                     0                       # What read queue length does an incoming req see
system.mem_ctrls0.rdQLenPdf::31                     0                       # What read queue length does an incoming req see
system.mem_ctrls0.wrQLenPdf::0                      2                       # What write queue length does an incoming req see
system.mem_ctrls0.wrQLenPdf::1                      2                       # What write queue length does an incoming req see
system.mem_ctrls0.wrQLenPdf::2                      2                       # What write queue length does an incoming req see
system.mem_ctrls0.wrQLenPdf::3                      2                       # What write queue length does an incoming req see
system.mem_ctrls0.wrQLenPdf::4                      2                       # What write queue length does an incoming req see
system.mem_ctrls0.wrQLenPdf::5                      2                       # What write queue length does an incoming req see
system.mem_ctrls0.wrQLenPdf::6                      2                       # What write queue length does an incoming req see
system.mem_ctrls0.wrQLenPdf::7                      2                       # What write queue length does an incoming req see
system.mem_ctrls0.wrQLenPdf::8                      2                       # What write queue length does an incoming req see
system.mem_ctrls0.wrQLenPdf::9                      2                       # What write queue length does an incoming req see
system.mem_ctrls0.wrQLenPdf::10                     2                       # What write queue length does an incoming req see
system.mem_ctrls0.wrQLenPdf::11                     2                       # What write queue length does an incoming req see
system.mem_ctrls0.wrQLenPdf::12                     2                       # What write queue length does an incoming req see
system.mem_ctrls0.wrQLenPdf::13                     2                       # What write queue length does an incoming req see
system.mem_ctrls0.wrQLenPdf::14                     2                       # What write queue length does an incoming req see
system.mem_ctrls0.wrQLenPdf::15                105604                       # What write queue length does an incoming req see
system.mem_ctrls0.wrQLenPdf::16                109507                       # What write queue length does an incoming req see
system.mem_ctrls0.wrQLenPdf::17                176543                       # What write queue length does an incoming req see
system.mem_ctrls0.wrQLenPdf::18                180463                       # What write queue length does an incoming req see
system.mem_ctrls0.wrQLenPdf::19                180622                       # What write queue length does an incoming req see
system.mem_ctrls0.wrQLenPdf::20                180487                       # What write queue length does an incoming req see
system.mem_ctrls0.wrQLenPdf::21                180451                       # What write queue length does an incoming req see
system.mem_ctrls0.wrQLenPdf::22                180410                       # What write queue length does an incoming req see
system.mem_ctrls0.wrQLenPdf::23                180335                       # What write queue length does an incoming req see
system.mem_ctrls0.wrQLenPdf::24                180307                       # What write queue length does an incoming req see
system.mem_ctrls0.wrQLenPdf::25                180247                       # What write queue length does an incoming req see
system.mem_ctrls0.wrQLenPdf::26                180247                       # What write queue length does an incoming req see
system.mem_ctrls0.wrQLenPdf::27                180505                       # What write queue length does an incoming req see
system.mem_ctrls0.wrQLenPdf::28                180628                       # What write queue length does an incoming req see
system.mem_ctrls0.wrQLenPdf::29                183173                       # What write queue length does an incoming req see
system.mem_ctrls0.wrQLenPdf::30                181868                       # What write queue length does an incoming req see
system.mem_ctrls0.wrQLenPdf::31                180023                       # What write queue length does an incoming req see
system.mem_ctrls0.wrQLenPdf::32                179969                       # What write queue length does an incoming req see
system.mem_ctrls0.wrQLenPdf::33                    50                       # What write queue length does an incoming req see
system.mem_ctrls0.wrQLenPdf::34                    11                       # What write queue length does an incoming req see
system.mem_ctrls0.wrQLenPdf::35                     0                       # What write queue length does an incoming req see
system.mem_ctrls0.wrQLenPdf::36                     0                       # What write queue length does an incoming req see
system.mem_ctrls0.wrQLenPdf::37                     0                       # What write queue length does an incoming req see
system.mem_ctrls0.wrQLenPdf::38                     0                       # What write queue length does an incoming req see
system.mem_ctrls0.wrQLenPdf::39                     0                       # What write queue length does an incoming req see
system.mem_ctrls0.wrQLenPdf::40                     0                       # What write queue length does an incoming req see
system.mem_ctrls0.wrQLenPdf::41                     0                       # What write queue length does an incoming req see
system.mem_ctrls0.wrQLenPdf::42                     0                       # What write queue length does an incoming req see
system.mem_ctrls0.wrQLenPdf::43                     0                       # What write queue length does an incoming req see
system.mem_ctrls0.wrQLenPdf::44                     0                       # What write queue length does an incoming req see
system.mem_ctrls0.wrQLenPdf::45                     0                       # What write queue length does an incoming req see
system.mem_ctrls0.wrQLenPdf::46                     0                       # What write queue length does an incoming req see
system.mem_ctrls0.wrQLenPdf::47                     0                       # What write queue length does an incoming req see
system.mem_ctrls0.wrQLenPdf::48                     0                       # What write queue length does an incoming req see
system.mem_ctrls0.wrQLenPdf::49                     0                       # What write queue length does an incoming req see
system.mem_ctrls0.wrQLenPdf::50                     0                       # What write queue length does an incoming req see
system.mem_ctrls0.wrQLenPdf::51                     0                       # What write queue length does an incoming req see
system.mem_ctrls0.wrQLenPdf::52                     0                       # What write queue length does an incoming req see
system.mem_ctrls0.wrQLenPdf::53                     0                       # What write queue length does an incoming req see
system.mem_ctrls0.wrQLenPdf::54                     0                       # What write queue length does an incoming req see
system.mem_ctrls0.wrQLenPdf::55                     0                       # What write queue length does an incoming req see
system.mem_ctrls0.wrQLenPdf::56                     0                       # What write queue length does an incoming req see
system.mem_ctrls0.wrQLenPdf::57                     0                       # What write queue length does an incoming req see
system.mem_ctrls0.wrQLenPdf::58                     0                       # What write queue length does an incoming req see
system.mem_ctrls0.wrQLenPdf::59                     0                       # What write queue length does an incoming req see
system.mem_ctrls0.wrQLenPdf::60                     0                       # What write queue length does an incoming req see
system.mem_ctrls0.wrQLenPdf::61                     0                       # What write queue length does an incoming req see
system.mem_ctrls0.wrQLenPdf::62                     0                       # What write queue length does an incoming req see
system.mem_ctrls0.wrQLenPdf::63                     0                       # What write queue length does an incoming req see
system.mem_ctrls0.bytesPerActivate::samples      6603898                       # Bytes accessed per row activation
system.mem_ctrls0.bytesPerActivate::mean   101.557552                       # Bytes accessed per row activation
system.mem_ctrls0.bytesPerActivate::gmean    83.368001                       # Bytes accessed per row activation
system.mem_ctrls0.bytesPerActivate::stdev    95.715511                       # Bytes accessed per row activation
system.mem_ctrls0.bytesPerActivate::0-127      5006680     75.81%     75.81% # Bytes accessed per row activation
system.mem_ctrls0.bytesPerActivate::128-255      1109313     16.80%     92.61% # Bytes accessed per row activation
system.mem_ctrls0.bytesPerActivate::256-383       270197      4.09%     96.70% # Bytes accessed per row activation
system.mem_ctrls0.bytesPerActivate::384-511       118380      1.79%     98.50% # Bytes accessed per row activation
system.mem_ctrls0.bytesPerActivate::512-639        57401      0.87%     99.37% # Bytes accessed per row activation
system.mem_ctrls0.bytesPerActivate::640-767        22963      0.35%     99.71% # Bytes accessed per row activation
system.mem_ctrls0.bytesPerActivate::768-895         9443      0.14%     99.86% # Bytes accessed per row activation
system.mem_ctrls0.bytesPerActivate::896-1023         5208      0.08%     99.93% # Bytes accessed per row activation
system.mem_ctrls0.bytesPerActivate::1024-1151         4313      0.07%    100.00% # Bytes accessed per row activation
system.mem_ctrls0.bytesPerActivate::total      6603898                       # Bytes accessed per row activation
system.mem_ctrls0.rdPerTurnAround::samples       179948                       # Reads before turning the bus around for writes
system.mem_ctrls0.rdPerTurnAround::mean     40.999917                       # Reads before turning the bus around for writes
system.mem_ctrls0.rdPerTurnAround::gmean    39.305712                       # Reads before turning the bus around for writes
system.mem_ctrls0.rdPerTurnAround::stdev    56.269192                       # Reads before turning the bus around for writes
system.mem_ctrls0.rdPerTurnAround::0-1023       179947    100.00%    100.00% # Reads before turning the bus around for writes
system.mem_ctrls0.rdPerTurnAround::22528-23551            1      0.00%    100.00% # Reads before turning the bus around for writes
system.mem_ctrls0.rdPerTurnAround::total       179948                       # Reads before turning the bus around for writes
system.mem_ctrls0.wrPerTurnAround::samples       179948                       # Writes before turning the bus around for reads
system.mem_ctrls0.wrPerTurnAround::mean     17.235301                       # Writes before turning the bus around for reads
system.mem_ctrls0.wrPerTurnAround::gmean    17.203821                       # Writes before turning the bus around for reads
system.mem_ctrls0.wrPerTurnAround::stdev     1.036757                       # Writes before turning the bus around for reads
system.mem_ctrls0.wrPerTurnAround::16           71743     39.87%     39.87% # Writes before turning the bus around for reads
system.mem_ctrls0.wrPerTurnAround::17            2302      1.28%     41.15% # Writes before turning the bus around for reads
system.mem_ctrls0.wrPerTurnAround::18           98213     54.58%     95.73% # Writes before turning the bus around for reads
system.mem_ctrls0.wrPerTurnAround::19            7242      4.02%     99.75% # Writes before turning the bus around for reads
system.mem_ctrls0.wrPerTurnAround::20             417      0.23%     99.98% # Writes before turning the bus around for reads
system.mem_ctrls0.wrPerTurnAround::21              28      0.02%    100.00% # Writes before turning the bus around for reads
system.mem_ctrls0.wrPerTurnAround::22               1      0.00%    100.00% # Writes before turning the bus around for reads
system.mem_ctrls0.wrPerTurnAround::23               1      0.00%    100.00% # Writes before turning the bus around for reads
system.mem_ctrls0.wrPerTurnAround::31               1      0.00%    100.00% # Writes before turning the bus around for reads
system.mem_ctrls0.wrPerTurnAround::total       179948                       # Writes before turning the bus around for reads
system.mem_ctrls0.totQLat                155238530479                       # Total ticks spent queuing
system.mem_ctrls0.totMemAccLat           293573480479                       # Total ticks spent from burst creation until serviced by the DRAM
system.mem_ctrls0.totBusLat               36889320000                       # Total ticks spent in databus transfers
system.mem_ctrls0.avgQLat                    21041.12                       # Average queueing delay per DRAM burst
system.mem_ctrls0.avgBusLat                   5000.00                       # Average bus latency per DRAM burst
system.mem_ctrls0.avgMemAccLat               39791.12                       # Average memory access latency per DRAM burst
system.mem_ctrls0.avgRdBW                      189.41                       # Average DRAM read bandwidth in MiByte/s
system.mem_ctrls0.avgWrBW                       79.62                       # Average achieved write bandwidth in MiByte/s
system.mem_ctrls0.avgRdBWSys                   189.52                       # Average system read bandwidth in MiByte/s
system.mem_ctrls0.avgWrBWSys                    79.63                       # Average system write bandwidth in MiByte/s
system.mem_ctrls0.peakBW                     12800.00                       # Theoretical peak bandwidth in MiByte/s
system.mem_ctrls0.busUtil                        2.10                       # Data bus utilization in percentage
system.mem_ctrls0.busUtilRead                    1.48                       # Data bus utilization in percentage for reads
system.mem_ctrls0.busUtilWrite                   0.62                       # Data bus utilization in percentage for writes
system.mem_ctrls0.avgRdQLen                      1.02                       # Average read queue length when enqueuing
system.mem_ctrls0.avgWrQLen                     24.80                       # Average write queue length when enqueuing
system.mem_ctrls0.readRowHits                 3822216                       # Number of row buffer hits during reads
system.mem_ctrls0.writeRowHits                  53200                       # Number of row buffer hits during writes
system.mem_ctrls0.readRowHitRate                51.81                       # Row buffer hit rate for reads
system.mem_ctrls0.writeRowHitRate                1.72                       # Row buffer hit rate for writes
system.mem_ctrls0.avgGap                    237788.10                       # Average gap between requests
system.mem_ctrls0.pageHitRate                   36.98                       # Row buffer hit rate, read and write combined
system.mem_ctrls0_0.actEnergy             23615321520                       # Energy for activate commands per rank (pJ)
system.mem_ctrls0_0.preEnergy             12551818290                       # Energy for precharge commands per rank (pJ)
system.mem_ctrls0_0.readEnergy            26420341920                       # Energy for read commands per rank (pJ)
system.mem_ctrls0_0.writeEnergy            8121818880                       # Energy for write commands per rank (pJ)
system.mem_ctrls0_0.refreshEnergy        197767795680.000031                       # Energy for refresh commands per rank (pJ)
system.mem_ctrls0_0.actBackEnergy        158664577560                       # Energy for active background per rank (pJ)
system.mem_ctrls0_0.preBackEnergy          4705986240                       # Energy for precharge background per rank (pJ)
system.mem_ctrls0_0.actPowerDownEnergy   847705435260                       # Energy for active power-down per rank (pJ)
system.mem_ctrls0_0.prePowerDownEnergy    98100094080                       # Energy for precharge power-down per rank (pJ)
system.mem_ctrls0_0.selfRefreshEnergy      6704235930                       # Energy for self refresh per rank (pJ)
system.mem_ctrls0_0.totalEnergy          1384378528710                       # Total energy per rank (pJ)
system.mem_ctrls0_0.averagePower           555.337667                       # Core power per rank (mW)
system.mem_ctrls0_0.totalIdleTime        2132612103873                       # Total Idle time Per DRAM Rank
system.mem_ctrls0_0.memoryStateTime::IDLE   2946023598                       # Time in different power states
system.mem_ctrls0_0.memoryStateTime::REF  83685576000                       # Time in different power states
system.mem_ctrls0_0.memoryStateTime::SREF  18136096131                       # Time in different power states
system.mem_ctrls0_0.memoryStateTime::PRE_PDN 255472646677                       # Time in different power states
system.mem_ctrls0_0.memoryStateTime::ACT 273614868045                       # Time in different power states
system.mem_ctrls0_0.memoryStateTime::ACT_PDN 1859003825492                       # Time in different power states
system.mem_ctrls0_1.actEnergy             23536567320                       # Energy for activate commands per rank (pJ)
system.mem_ctrls0_1.preEnergy             12509974620                       # Energy for precharge commands per rank (pJ)
system.mem_ctrls0_1.readEnergy            26257607040                       # Energy for read commands per rank (pJ)
system.mem_ctrls0_1.writeEnergy            8067791880                       # Energy for write commands per rank (pJ)
system.mem_ctrls0_1.refreshEnergy        197759805360.000031                       # Energy for refresh commands per rank (pJ)
system.mem_ctrls0_1.actBackEnergy        158899886100                       # Energy for active background per rank (pJ)
system.mem_ctrls0_1.preBackEnergy          4706568480                       # Energy for precharge background per rank (pJ)
system.mem_ctrls0_1.actPowerDownEnergy   846035283390                       # Energy for active power-down per rank (pJ)
system.mem_ctrls0_1.prePowerDownEnergy    99014638560                       # Energy for precharge power-down per rank (pJ)
system.mem_ctrls0_1.selfRefreshEnergy      6936928035                       # Energy for self refresh per rank (pJ)
system.mem_ctrls0_1.totalEnergy          1383744786105                       # Total energy per rank (pJ)
system.mem_ctrls0_1.averagePower           555.083444                       # Core power per rank (mW)
system.mem_ctrls0_1.totalIdleTime        2132094255776                       # Total Idle time Per DRAM Rank
system.mem_ctrls0_1.memoryStateTime::IDLE   2975314509                       # Time in different power states
system.mem_ctrls0_1.memoryStateTime::REF  83682646000                       # Time in different power states
system.mem_ctrls0_1.memoryStateTime::SREF  18902652255                       # Time in different power states
system.mem_ctrls0_1.memoryStateTime::PRE_PDN 257848041386                       # Time in different power states
system.mem_ctrls0_1.memoryStateTime::ACT 274106747172                       # Time in different power states
system.mem_ctrls0_1.memoryStateTime::ACT_PDN 1855343634621                       # Time in different power states
system.mem_ctrls1.pwrStateResidencyTicks::UNDEFINED 129445855560675                       # Cumulative time (in ticks) in various power states
system.mem_ctrls1.bytes_read::cpu.data            128                       # Number of bytes read from this memory
system.mem_ctrls1.bytes_read::switch_cpus.inst        75200                       # Number of bytes read from this memory
system.mem_ctrls1.bytes_read::switch_cpus.data    385892480                       # Number of bytes read from this memory
system.mem_ctrls1.bytes_read::switch_cpus_1.inst        26240                       # Number of bytes read from this memory
system.mem_ctrls1.bytes_read::switch_cpus_1.data     87212864                       # Number of bytes read from this memory
system.mem_ctrls1.bytes_read::total         473206912                       # Number of bytes read from this memory
system.mem_ctrls1.bytes_inst_read::switch_cpus.inst        75200                       # Number of instructions bytes read from this memory
system.mem_ctrls1.bytes_inst_read::switch_cpus_1.inst        26240                       # Number of instructions bytes read from this memory
system.mem_ctrls1.bytes_inst_read::total       101440                       # Number of instructions bytes read from this memory
system.mem_ctrls1.bytes_written::writebacks    197845568                       # Number of bytes written to this memory
system.mem_ctrls1.bytes_written::total      197845568                       # Number of bytes written to this memory
system.mem_ctrls1.num_reads::cpu.data               2                       # Number of read requests responded to by this memory
system.mem_ctrls1.num_reads::switch_cpus.inst         1175                       # Number of read requests responded to by this memory
system.mem_ctrls1.num_reads::switch_cpus.data      6029570                       # Number of read requests responded to by this memory
system.mem_ctrls1.num_reads::switch_cpus_1.inst          410                       # Number of read requests responded to by this memory
system.mem_ctrls1.num_reads::switch_cpus_1.data      1362701                       # Number of read requests responded to by this memory
system.mem_ctrls1.num_reads::total            7393858                       # Number of read requests responded to by this memory
system.mem_ctrls1.num_writes::writebacks      3091337                       # Number of write requests responded to by this memory
system.mem_ctrls1.num_writes::total           3091337                       # Number of write requests responded to by this memory
system.mem_ctrls1.bw_read::cpu.data                51                       # Total read bandwidth from this memory (bytes/s)
system.mem_ctrls1.bw_read::switch_cpus.inst        30166                       # Total read bandwidth from this memory (bytes/s)
system.mem_ctrls1.bw_read::switch_cpus.data    154799158                       # Total read bandwidth from this memory (bytes/s)
system.mem_ctrls1.bw_read::switch_cpus_1.inst        10526                       # Total read bandwidth from this memory (bytes/s)
system.mem_ctrls1.bw_read::switch_cpus_1.data     34985076                       # Total read bandwidth from this memory (bytes/s)
system.mem_ctrls1.bw_read::total            189824978                       # Total read bandwidth from this memory (bytes/s)
system.mem_ctrls1.bw_inst_read::switch_cpus.inst        30166                       # Instruction read bandwidth from this memory (bytes/s)
system.mem_ctrls1.bw_inst_read::switch_cpus_1.inst        10526                       # Instruction read bandwidth from this memory (bytes/s)
system.mem_ctrls1.bw_inst_read::total           40692                       # Instruction read bandwidth from this memory (bytes/s)
system.mem_ctrls1.bw_write::writebacks       79364924                       # Write bandwidth from this memory (bytes/s)
system.mem_ctrls1.bw_write::total            79364924                       # Write bandwidth from this memory (bytes/s)
system.mem_ctrls1.bw_total::writebacks       79364924                       # Total bandwidth to/from this memory (bytes/s)
system.mem_ctrls1.bw_total::cpu.data               51                       # Total bandwidth to/from this memory (bytes/s)
system.mem_ctrls1.bw_total::switch_cpus.inst        30166                       # Total bandwidth to/from this memory (bytes/s)
system.mem_ctrls1.bw_total::switch_cpus.data    154799158                       # Total bandwidth to/from this memory (bytes/s)
system.mem_ctrls1.bw_total::switch_cpus_1.inst        10526                       # Total bandwidth to/from this memory (bytes/s)
system.mem_ctrls1.bw_total::switch_cpus_1.data     34985076                       # Total bandwidth to/from this memory (bytes/s)
system.mem_ctrls1.bw_total::total           269189902                       # Total bandwidth to/from this memory (bytes/s)
system.mem_ctrls1.readReqs                    7393858                       # Number of read requests accepted
system.mem_ctrls1.writeReqs                   3091337                       # Number of write requests accepted
system.mem_ctrls1.readBursts                  7393858                       # Number of DRAM read bursts, including those serviced by the write queue
system.mem_ctrls1.writeBursts                 3091337                       # Number of DRAM write bursts, including those merged in the write queue
system.mem_ctrls1.bytesReadDRAM             472930432                       # Total number of bytes read from DRAM
system.mem_ctrls1.bytesReadWrQ                 276480                       # Total number of bytes read from write queue
system.mem_ctrls1.bytesWritten              197843712                       # Total number of bytes written to DRAM
system.mem_ctrls1.bytesReadSys              473206912                       # Total read bytes from the system interface side
system.mem_ctrls1.bytesWrittenSys           197845568                       # Total written bytes from the system interface side
system.mem_ctrls1.servicedByWrQ                  4320                       # Number of DRAM read bursts serviced by the write queue
system.mem_ctrls1.mergedWrBursts                    0                       # Number of DRAM write bursts merged with an existing one
system.mem_ctrls1.neitherReadNorWriteReqs            0                       # Number of requests that are neither read nor write
system.mem_ctrls1.perBankRdBursts::0           457967                       # Per bank write bursts
system.mem_ctrls1.perBankRdBursts::1           462668                       # Per bank write bursts
system.mem_ctrls1.perBankRdBursts::2           464437                       # Per bank write bursts
system.mem_ctrls1.perBankRdBursts::3           451443                       # Per bank write bursts
system.mem_ctrls1.perBankRdBursts::4           445664                       # Per bank write bursts
system.mem_ctrls1.perBankRdBursts::5           464810                       # Per bank write bursts
system.mem_ctrls1.perBankRdBursts::6           479885                       # Per bank write bursts
system.mem_ctrls1.perBankRdBursts::7           471813                       # Per bank write bursts
system.mem_ctrls1.perBankRdBursts::8           488528                       # Per bank write bursts
system.mem_ctrls1.perBankRdBursts::9           470040                       # Per bank write bursts
system.mem_ctrls1.perBankRdBursts::10          450630                       # Per bank write bursts
system.mem_ctrls1.perBankRdBursts::11          448083                       # Per bank write bursts
system.mem_ctrls1.perBankRdBursts::12          446156                       # Per bank write bursts
system.mem_ctrls1.perBankRdBursts::13          461670                       # Per bank write bursts
system.mem_ctrls1.perBankRdBursts::14          467956                       # Per bank write bursts
system.mem_ctrls1.perBankRdBursts::15          457788                       # Per bank write bursts
system.mem_ctrls1.perBankWrBursts::0           192004                       # Per bank write bursts
system.mem_ctrls1.perBankWrBursts::1           190330                       # Per bank write bursts
system.mem_ctrls1.perBankWrBursts::2           192912                       # Per bank write bursts
system.mem_ctrls1.perBankWrBursts::3           186610                       # Per bank write bursts
system.mem_ctrls1.perBankWrBursts::4           188495                       # Per bank write bursts
system.mem_ctrls1.perBankWrBursts::5           192820                       # Per bank write bursts
system.mem_ctrls1.perBankWrBursts::6           202379                       # Per bank write bursts
system.mem_ctrls1.perBankWrBursts::7           195407                       # Per bank write bursts
system.mem_ctrls1.perBankWrBursts::8           205851                       # Per bank write bursts
system.mem_ctrls1.perBankWrBursts::9           192161                       # Per bank write bursts
system.mem_ctrls1.perBankWrBursts::10          193581                       # Per bank write bursts
system.mem_ctrls1.perBankWrBursts::11          190685                       # Per bank write bursts
system.mem_ctrls1.perBankWrBursts::12          185481                       # Per bank write bursts
system.mem_ctrls1.perBankWrBursts::13          192719                       # Per bank write bursts
system.mem_ctrls1.perBankWrBursts::14          197089                       # Per bank write bursts
system.mem_ctrls1.perBankWrBursts::15          192784                       # Per bank write bursts
system.mem_ctrls1.numRdRetry                        0                       # Number of times read queue was full causing retry
system.mem_ctrls1.numWrRetry                        0                       # Number of times write queue was full causing retry
system.mem_ctrls1.totGap                 2492858709270                       # Total gap between requests
system.mem_ctrls1.readPktSize::0                    0                       # Read request sizes (log2)
system.mem_ctrls1.readPktSize::1                    0                       # Read request sizes (log2)
system.mem_ctrls1.readPktSize::2                    0                       # Read request sizes (log2)
system.mem_ctrls1.readPktSize::3                    0                       # Read request sizes (log2)
system.mem_ctrls1.readPktSize::4                    0                       # Read request sizes (log2)
system.mem_ctrls1.readPktSize::5                    0                       # Read request sizes (log2)
system.mem_ctrls1.readPktSize::6              7393858                       # Read request sizes (log2)
system.mem_ctrls1.writePktSize::0                   0                       # Write request sizes (log2)
system.mem_ctrls1.writePktSize::1                   0                       # Write request sizes (log2)
system.mem_ctrls1.writePktSize::2                   0                       # Write request sizes (log2)
system.mem_ctrls1.writePktSize::3                   0                       # Write request sizes (log2)
system.mem_ctrls1.writePktSize::4                   0                       # Write request sizes (log2)
system.mem_ctrls1.writePktSize::5                   0                       # Write request sizes (log2)
system.mem_ctrls1.writePktSize::6             3091337                       # Write request sizes (log2)
system.mem_ctrls1.rdQLenPdf::0                7093060                       # What read queue length does an incoming req see
system.mem_ctrls1.rdQLenPdf::1                 261241                       # What read queue length does an incoming req see
system.mem_ctrls1.rdQLenPdf::2                  33076                       # What read queue length does an incoming req see
system.mem_ctrls1.rdQLenPdf::3                   2160                       # What read queue length does an incoming req see
system.mem_ctrls1.rdQLenPdf::4                      1                       # What read queue length does an incoming req see
system.mem_ctrls1.rdQLenPdf::5                      0                       # What read queue length does an incoming req see
system.mem_ctrls1.rdQLenPdf::6                      0                       # What read queue length does an incoming req see
system.mem_ctrls1.rdQLenPdf::7                      0                       # What read queue length does an incoming req see
system.mem_ctrls1.rdQLenPdf::8                      0                       # What read queue length does an incoming req see
system.mem_ctrls1.rdQLenPdf::9                      0                       # What read queue length does an incoming req see
system.mem_ctrls1.rdQLenPdf::10                     0                       # What read queue length does an incoming req see
system.mem_ctrls1.rdQLenPdf::11                     0                       # What read queue length does an incoming req see
system.mem_ctrls1.rdQLenPdf::12                     0                       # What read queue length does an incoming req see
system.mem_ctrls1.rdQLenPdf::13                     0                       # What read queue length does an incoming req see
system.mem_ctrls1.rdQLenPdf::14                     0                       # What read queue length does an incoming req see
system.mem_ctrls1.rdQLenPdf::15                     0                       # What read queue length does an incoming req see
system.mem_ctrls1.rdQLenPdf::16                     0                       # What read queue length does an incoming req see
system.mem_ctrls1.rdQLenPdf::17                     0                       # What read queue length does an incoming req see
system.mem_ctrls1.rdQLenPdf::18                     0                       # What read queue length does an incoming req see
system.mem_ctrls1.rdQLenPdf::19                     0                       # What read queue length does an incoming req see
system.mem_ctrls1.rdQLenPdf::20                     0                       # What read queue length does an incoming req see
system.mem_ctrls1.rdQLenPdf::21                     0                       # What read queue length does an incoming req see
system.mem_ctrls1.rdQLenPdf::22                     0                       # What read queue length does an incoming req see
system.mem_ctrls1.rdQLenPdf::23                     0                       # What read queue length does an incoming req see
system.mem_ctrls1.rdQLenPdf::24                     0                       # What read queue length does an incoming req see
system.mem_ctrls1.rdQLenPdf::25                     0                       # What read queue length does an incoming req see
system.mem_ctrls1.rdQLenPdf::26                     0                       # What read queue length does an incoming req see
system.mem_ctrls1.rdQLenPdf::27                     0                       # What read queue length does an incoming req see
system.mem_ctrls1.rdQLenPdf::28                     0                       # What read queue length does an incoming req see
system.mem_ctrls1.rdQLenPdf::29                     0                       # What read queue length does an incoming req see
system.mem_ctrls1.rdQLenPdf::30                     0                       # What read queue length does an incoming req see
system.mem_ctrls1.rdQLenPdf::31                     0                       # What read queue length does an incoming req see
system.mem_ctrls1.wrQLenPdf::0                      2                       # What write queue length does an incoming req see
system.mem_ctrls1.wrQLenPdf::1                      2                       # What write queue length does an incoming req see
system.mem_ctrls1.wrQLenPdf::2                      2                       # What write queue length does an incoming req see
system.mem_ctrls1.wrQLenPdf::3                      2                       # What write queue length does an incoming req see
system.mem_ctrls1.wrQLenPdf::4                      2                       # What write queue length does an incoming req see
system.mem_ctrls1.wrQLenPdf::5                      2                       # What write queue length does an incoming req see
system.mem_ctrls1.wrQLenPdf::6                      2                       # What write queue length does an incoming req see
system.mem_ctrls1.wrQLenPdf::7                      2                       # What write queue length does an incoming req see
system.mem_ctrls1.wrQLenPdf::8                      2                       # What write queue length does an incoming req see
system.mem_ctrls1.wrQLenPdf::9                      2                       # What write queue length does an incoming req see
system.mem_ctrls1.wrQLenPdf::10                     2                       # What write queue length does an incoming req see
system.mem_ctrls1.wrQLenPdf::11                     2                       # What write queue length does an incoming req see
system.mem_ctrls1.wrQLenPdf::12                     2                       # What write queue length does an incoming req see
system.mem_ctrls1.wrQLenPdf::13                     2                       # What write queue length does an incoming req see
system.mem_ctrls1.wrQLenPdf::14                     2                       # What write queue length does an incoming req see
system.mem_ctrls1.wrQLenPdf::15                104801                       # What write queue length does an incoming req see
system.mem_ctrls1.wrQLenPdf::16                108566                       # What write queue length does an incoming req see
system.mem_ctrls1.wrQLenPdf::17                176129                       # What write queue length does an incoming req see
system.mem_ctrls1.wrQLenPdf::18                179986                       # What write queue length does an incoming req see
system.mem_ctrls1.wrQLenPdf::19                180070                       # What write queue length does an incoming req see
system.mem_ctrls1.wrQLenPdf::20                179930                       # What write queue length does an incoming req see
system.mem_ctrls1.wrQLenPdf::21                179900                       # What write queue length does an incoming req see
system.mem_ctrls1.wrQLenPdf::22                179847                       # What write queue length does an incoming req see
system.mem_ctrls1.wrQLenPdf::23                179850                       # What write queue length does an incoming req see
system.mem_ctrls1.wrQLenPdf::24                179774                       # What write queue length does an incoming req see
system.mem_ctrls1.wrQLenPdf::25                179746                       # What write queue length does an incoming req see
system.mem_ctrls1.wrQLenPdf::26                179741                       # What write queue length does an incoming req see
system.mem_ctrls1.wrQLenPdf::27                180012                       # What write queue length does an incoming req see
system.mem_ctrls1.wrQLenPdf::28                180072                       # What write queue length does an incoming req see
system.mem_ctrls1.wrQLenPdf::29                182584                       # What write queue length does an incoming req see
system.mem_ctrls1.wrQLenPdf::30                181303                       # What write queue length does an incoming req see
system.mem_ctrls1.wrQLenPdf::31                179496                       # What write queue length does an incoming req see
system.mem_ctrls1.wrQLenPdf::32                179450                       # What write queue length does an incoming req see
system.mem_ctrls1.wrQLenPdf::33                    47                       # What write queue length does an incoming req see
system.mem_ctrls1.wrQLenPdf::34                     3                       # What write queue length does an incoming req see
system.mem_ctrls1.wrQLenPdf::35                     0                       # What write queue length does an incoming req see
system.mem_ctrls1.wrQLenPdf::36                     0                       # What write queue length does an incoming req see
system.mem_ctrls1.wrQLenPdf::37                     0                       # What write queue length does an incoming req see
system.mem_ctrls1.wrQLenPdf::38                     0                       # What write queue length does an incoming req see
system.mem_ctrls1.wrQLenPdf::39                     0                       # What write queue length does an incoming req see
system.mem_ctrls1.wrQLenPdf::40                     0                       # What write queue length does an incoming req see
system.mem_ctrls1.wrQLenPdf::41                     0                       # What write queue length does an incoming req see
system.mem_ctrls1.wrQLenPdf::42                     0                       # What write queue length does an incoming req see
system.mem_ctrls1.wrQLenPdf::43                     0                       # What write queue length does an incoming req see
system.mem_ctrls1.wrQLenPdf::44                     0                       # What write queue length does an incoming req see
system.mem_ctrls1.wrQLenPdf::45                     0                       # What write queue length does an incoming req see
system.mem_ctrls1.wrQLenPdf::46                     0                       # What write queue length does an incoming req see
system.mem_ctrls1.wrQLenPdf::47                     0                       # What write queue length does an incoming req see
system.mem_ctrls1.wrQLenPdf::48                     0                       # What write queue length does an incoming req see
system.mem_ctrls1.wrQLenPdf::49                     0                       # What write queue length does an incoming req see
system.mem_ctrls1.wrQLenPdf::50                     0                       # What write queue length does an incoming req see
system.mem_ctrls1.wrQLenPdf::51                     0                       # What write queue length does an incoming req see
system.mem_ctrls1.wrQLenPdf::52                     0                       # What write queue length does an incoming req see
system.mem_ctrls1.wrQLenPdf::53                     0                       # What write queue length does an incoming req see
system.mem_ctrls1.wrQLenPdf::54                     0                       # What write queue length does an incoming req see
system.mem_ctrls1.wrQLenPdf::55                     0                       # What write queue length does an incoming req see
system.mem_ctrls1.wrQLenPdf::56                     0                       # What write queue length does an incoming req see
system.mem_ctrls1.wrQLenPdf::57                     0                       # What write queue length does an incoming req see
system.mem_ctrls1.wrQLenPdf::58                     0                       # What write queue length does an incoming req see
system.mem_ctrls1.wrQLenPdf::59                     0                       # What write queue length does an incoming req see
system.mem_ctrls1.wrQLenPdf::60                     0                       # What write queue length does an incoming req see
system.mem_ctrls1.wrQLenPdf::61                     0                       # What write queue length does an incoming req see
system.mem_ctrls1.wrQLenPdf::62                     0                       # What write queue length does an incoming req see
system.mem_ctrls1.wrQLenPdf::63                     0                       # What write queue length does an incoming req see
system.mem_ctrls1.bytesPerActivate::samples      6591854                       # Bytes accessed per row activation
system.mem_ctrls1.bytesPerActivate::mean   101.757914                       # Bytes accessed per row activation
system.mem_ctrls1.bytesPerActivate::gmean    83.476180                       # Bytes accessed per row activation
system.mem_ctrls1.bytesPerActivate::stdev    95.934024                       # Bytes accessed per row activation
system.mem_ctrls1.bytesPerActivate::0-127      4990289     75.70%     75.70% # Bytes accessed per row activation
system.mem_ctrls1.bytesPerActivate::128-255      1111347     16.86%     92.56% # Bytes accessed per row activation
system.mem_ctrls1.bytesPerActivate::256-383       270389      4.10%     96.67% # Bytes accessed per row activation
system.mem_ctrls1.bytesPerActivate::384-511       119578      1.81%     98.48% # Bytes accessed per row activation
system.mem_ctrls1.bytesPerActivate::512-639        58614      0.89%     99.37% # Bytes accessed per row activation
system.mem_ctrls1.bytesPerActivate::640-767        22803      0.35%     99.71% # Bytes accessed per row activation
system.mem_ctrls1.bytesPerActivate::768-895         9447      0.14%     99.86% # Bytes accessed per row activation
system.mem_ctrls1.bytesPerActivate::896-1023         5112      0.08%     99.94% # Bytes accessed per row activation
system.mem_ctrls1.bytesPerActivate::1024-1151         4275      0.06%    100.00% # Bytes accessed per row activation
system.mem_ctrls1.bytesPerActivate::total      6591854                       # Bytes accessed per row activation
system.mem_ctrls1.rdPerTurnAround::samples       179432                       # Reads before turning the bus around for writes
system.mem_ctrls1.rdPerTurnAround::mean     41.182766                       # Reads before turning the bus around for writes
system.mem_ctrls1.rdPerTurnAround::gmean    39.489458                       # Reads before turning the bus around for writes
system.mem_ctrls1.rdPerTurnAround::stdev    58.056589                       # Reads before turning the bus around for writes
system.mem_ctrls1.rdPerTurnAround::0-1023       179431    100.00%    100.00% # Reads before turning the bus around for writes
system.mem_ctrls1.rdPerTurnAround::23552-24575            1      0.00%    100.00% # Reads before turning the bus around for writes
system.mem_ctrls1.rdPerTurnAround::total       179432                       # Reads before turning the bus around for writes
system.mem_ctrls1.wrPerTurnAround::samples       179432                       # Writes before turning the bus around for reads
system.mem_ctrls1.wrPerTurnAround::mean     17.228298                       # Writes before turning the bus around for reads
system.mem_ctrls1.wrPerTurnAround::gmean    17.196765                       # Writes before turning the bus around for reads
system.mem_ctrls1.wrPerTurnAround::stdev     1.037643                       # Writes before turning the bus around for reads
system.mem_ctrls1.wrPerTurnAround::16           72130     40.20%     40.20% # Writes before turning the bus around for reads
system.mem_ctrls1.wrPerTurnAround::17            2250      1.25%     41.45% # Writes before turning the bus around for reads
system.mem_ctrls1.wrPerTurnAround::18           97536     54.36%     95.81% # Writes before turning the bus around for reads
system.mem_ctrls1.wrPerTurnAround::19            7041      3.92%     99.74% # Writes before turning the bus around for reads
system.mem_ctrls1.wrPerTurnAround::20             437      0.24%     99.98% # Writes before turning the bus around for reads
system.mem_ctrls1.wrPerTurnAround::21              33      0.02%    100.00% # Writes before turning the bus around for reads
system.mem_ctrls1.wrPerTurnAround::22               3      0.00%    100.00% # Writes before turning the bus around for reads
system.mem_ctrls1.wrPerTurnAround::23               1      0.00%    100.00% # Writes before turning the bus around for reads
system.mem_ctrls1.wrPerTurnAround::29               1      0.00%    100.00% # Writes before turning the bus around for reads
system.mem_ctrls1.wrPerTurnAround::total       179432                       # Writes before turning the bus around for reads
system.mem_ctrls1.totQLat                155150617733                       # Total ticks spent queuing
system.mem_ctrls1.totMemAccLat           293704455233                       # Total ticks spent from burst creation until serviced by the DRAM
system.mem_ctrls1.totBusLat               36947690000                       # Total ticks spent in databus transfers
system.mem_ctrls1.avgQLat                    20995.98                       # Average queueing delay per DRAM burst
system.mem_ctrls1.avgBusLat                   5000.00                       # Average bus latency per DRAM burst
system.mem_ctrls1.avgMemAccLat               39745.98                       # Average memory access latency per DRAM burst
system.mem_ctrls1.avgRdBW                      189.71                       # Average DRAM read bandwidth in MiByte/s
system.mem_ctrls1.avgWrBW                       79.36                       # Average achieved write bandwidth in MiByte/s
system.mem_ctrls1.avgRdBWSys                   189.82                       # Average system read bandwidth in MiByte/s
system.mem_ctrls1.avgWrBWSys                    79.36                       # Average system write bandwidth in MiByte/s
system.mem_ctrls1.peakBW                     12800.00                       # Theoretical peak bandwidth in MiByte/s
system.mem_ctrls1.busUtil                        2.10                       # Data bus utilization in percentage
system.mem_ctrls1.busUtilRead                    1.48                       # Data bus utilization in percentage for reads
system.mem_ctrls1.busUtilWrite                   0.62                       # Data bus utilization in percentage for writes
system.mem_ctrls1.avgRdQLen                      1.02                       # Average read queue length when enqueuing
system.mem_ctrls1.avgWrQLen                     24.81                       # Average write queue length when enqueuing
system.mem_ctrls1.readRowHits                 3835171                       # Number of row buffer hits during reads
system.mem_ctrls1.writeRowHits                  53813                       # Number of row buffer hits during writes
system.mem_ctrls1.readRowHitRate                51.90                       # Row buffer hit rate for reads
system.mem_ctrls1.writeRowHitRate                1.74                       # Row buffer hit rate for writes
system.mem_ctrls1.avgGap                    237750.34                       # Average gap between requests
system.mem_ctrls1.pageHitRate                   37.11                       # Row buffer hit rate, read and write combined
system.mem_ctrls1_0.actEnergy             23504851440                       # Energy for activate commands per rank (pJ)
system.mem_ctrls1_0.preEnergy             12493109640                       # Energy for precharge commands per rank (pJ)
system.mem_ctrls1_0.readEnergy            26408625180                       # Energy for read commands per rank (pJ)
system.mem_ctrls1_0.writeEnergy            8043795540                       # Energy for write commands per rank (pJ)
system.mem_ctrls1_0.refreshEnergy        197664536160.000031                       # Energy for refresh commands per rank (pJ)
system.mem_ctrls1_0.actBackEnergy        158088794340                       # Energy for active background per rank (pJ)
system.mem_ctrls1_0.preBackEnergy          4690935360                       # Energy for precharge background per rank (pJ)
system.mem_ctrls1_0.actPowerDownEnergy   849028666890                       # Energy for active power-down per rank (pJ)
system.mem_ctrls1_0.prePowerDownEnergy    97416794400                       # Energy for precharge power-down per rank (pJ)
system.mem_ctrls1_0.selfRefreshEnergy      6660283740                       # Energy for self refresh per rank (pJ)
system.mem_ctrls1_0.totalEnergy          1384020341760                       # Total energy per rank (pJ)
system.mem_ctrls1_0.averagePower           555.193984                       # Core power per rank (mW)
system.mem_ctrls1_0.totalIdleTime        2133916147372                       # Total Idle time Per DRAM Rank
system.mem_ctrls1_0.memoryStateTime::IDLE   2903393679                       # Time in different power states
system.mem_ctrls1_0.memoryStateTime::REF  83640798000                       # Time in different power states
system.mem_ctrls1_0.memoryStateTime::SREF  18318166504                       # Time in different power states
system.mem_ctrls1_0.memoryStateTime::PRE_PDN 253688971467                       # Time in different power states
system.mem_ctrls1_0.memoryStateTime::ACT 272397884147                       # Time in different power states
system.mem_ctrls1_0.memoryStateTime::ACT_PDN 1861909822146                       # Time in different power states
system.mem_ctrls1_1.actEnergy             23561043240                       # Energy for activate commands per rank (pJ)
system.mem_ctrls1_1.preEnergy             12522976290                       # Energy for precharge commands per rank (pJ)
system.mem_ctrls1_1.readEnergy            26352676140                       # Energy for read commands per rank (pJ)
system.mem_ctrls1_1.writeEnergy            8092832220                       # Energy for write commands per rank (pJ)
system.mem_ctrls1_1.refreshEnergy        197793610560.000031                       # Energy for refresh commands per rank (pJ)
system.mem_ctrls1_1.actBackEnergy        158618411550                       # Energy for active background per rank (pJ)
system.mem_ctrls1_1.preBackEnergy          4714248960                       # Energy for precharge background per rank (pJ)
system.mem_ctrls1_1.actPowerDownEnergy   845935028940                       # Energy for active power-down per rank (pJ)
system.mem_ctrls1_1.prePowerDownEnergy    99382599360                       # Energy for precharge power-down per rank (pJ)
system.mem_ctrls1_1.selfRefreshEnergy      6925472745                       # Energy for self refresh per rank (pJ)
system.mem_ctrls1_1.totalEnergy          1383921108045                       # Total energy per rank (pJ)
system.mem_ctrls1_1.averagePower           555.154177                       # Core power per rank (mW)
system.mem_ctrls1_1.totalIdleTime        2132688737852                       # Total Idle time Per DRAM Rank
system.mem_ctrls1_1.memoryStateTime::IDLE   2988870737                       # Time in different power states
system.mem_ctrls1_1.memoryStateTime::REF  83697342000                       # Time in different power states
system.mem_ctrls1_1.memoryStateTime::SREF  18755978087                       # Time in different power states
system.mem_ctrls1_1.memoryStateTime::PRE_PDN 258805071295                       # Time in different power states
system.mem_ctrls1_1.memoryStateTime::ACT 273483831147                       # Time in different power states
system.mem_ctrls1_1.memoryStateTime::ACT_PDN 1855127942677                       # Time in different power states
system.pwrStateResidencyTicks::UNDEFINED 129445855560675                       # Cumulative time (in ticks) in various power states
system.cpu.branchPred.lookups                       3                       # Number of BP lookups
system.cpu.branchPred.condPredicted                 3                       # Number of conditional branches predicted
system.cpu.branchPred.condIncorrect                 1                       # Number of conditional branches incorrect
system.cpu.branchPred.BTBLookups                    0                       # Number of BTB lookups
system.cpu.branchPred.BTBHits                       0                       # Number of BTB hits
system.cpu.branchPred.BTBCorrect                    0                       # Number of correct BTB predictions (this stat may not work properly.
system.cpu.branchPred.BTBHitPct                   nan                       # BTB Hit Percentage
system.cpu.branchPred.usedRAS                       0                       # Number of times the RAS was used to get a target.
system.cpu.branchPred.RASInCorrect                  0                       # Number of incorrect RAS predictions.
system.cpu.branchPred.indirectLookups               0                       # Number of indirect predictor lookups.
system.cpu.branchPred.indirectHits                  0                       # Number of indirect target hits.
system.cpu.branchPred.indirectMisses                0                       # Number of indirect misses.
system.cpu.branchPredindirectMispredicted            0                       # Number of mispredicted indirect branches.
system.cpu_voltage_domain.voltage                   1                       # Voltage in Volts
system.cpu_clk_domain.clock                       333                       # Clock period in ticks
system.cpu.dtb.fetch_hits                           0                       # ITB hits
system.cpu.dtb.fetch_misses                         0                       # ITB misses
system.cpu.dtb.fetch_acv                            0                       # ITB acv
system.cpu.dtb.fetch_accesses                       0                       # ITB accesses
system.cpu.dtb.read_hits                            2                       # DTB read hits
system.cpu.dtb.read_misses                          0                       # DTB read misses
system.cpu.dtb.read_acv                             0                       # DTB read access violations
system.cpu.dtb.read_accesses                        2                       # DTB read accesses
system.cpu.dtb.write_hits                           0                       # DTB write hits
system.cpu.dtb.write_misses                         0                       # DTB write misses
system.cpu.dtb.write_acv                            0                       # DTB write access violations
system.cpu.dtb.write_accesses                       0                       # DTB write accesses
system.cpu.dtb.data_hits                            2                       # DTB hits
system.cpu.dtb.data_misses                          0                       # DTB misses
system.cpu.dtb.data_acv                             0                       # DTB access violations
system.cpu.dtb.data_accesses                        2                       # DTB accesses
system.cpu.itb.fetch_hits                           3                       # ITB hits
system.cpu.itb.fetch_misses                         0                       # ITB misses
system.cpu.itb.fetch_acv                            0                       # ITB acv
system.cpu.itb.fetch_accesses                       3                       # ITB accesses
system.cpu.itb.read_hits                            0                       # DTB read hits
system.cpu.itb.read_misses                          0                       # DTB read misses
system.cpu.itb.read_acv                             0                       # DTB read access violations
system.cpu.itb.read_accesses                        0                       # DTB read accesses
system.cpu.itb.write_hits                           0                       # DTB write hits
system.cpu.itb.write_misses                         0                       # DTB write misses
system.cpu.itb.write_acv                            0                       # DTB write access violations
system.cpu.itb.write_accesses                       0                       # DTB write accesses
system.cpu.itb.data_hits                            0                       # DTB hits
system.cpu.itb.data_misses                          0                       # DTB misses
system.cpu.itb.data_acv                             0                       # DTB access violations
system.cpu.itb.data_accesses                        0                       # DTB accesses
system.cpu.workload.num_syscalls                    0                       # Number of system calls
system.cpu.pwrStateResidencyTicks::ON    2492859035943                       # Cumulative time (in ticks) in various power states
system.cpu.numCycles                              291                       # number of cpu cycles simulated
system.cpu.numWorkItemsStarted                      0                       # number of work items this cpu started
system.cpu.numWorkItemsCompleted                    0                       # number of work items this cpu completed
system.cpu.fetch.icacheStallCycles                 19                       # Number of cycles fetch is stalled on an Icache miss
system.cpu.fetch.Insts                              9                       # Number of instructions fetch has processed
system.cpu.fetch.Branches                           3                       # Number of branches that fetch encountered
system.cpu.fetch.Cycles                             2                       # Number of cycles fetch has run and was not squashing or blocked
system.cpu.fetch.SquashCycles                       5                       # Number of cycles fetch has spent squashing
system.cpu.fetch.PendingDrainCycles                 3                       # Number of cycles fetch has spent waiting on pipes to drain
system.cpu.fetch.CacheLines                         3                       # Number of cache lines fetched
system.cpu.fetch.IcacheSquashes                     2                       # Number of outstanding Icache misses that were squashed
system.cpu.fetch.rateDist::samples                 26                       # Number of instructions fetched each cycle (Total)
system.cpu.fetch.rateDist::mean              0.346154                       # Number of instructions fetched each cycle (Total)
system.cpu.fetch.rateDist::stdev             1.573336                       # Number of instructions fetched each cycle (Total)
system.cpu.fetch.rateDist::underflows               0      0.00%      0.00% # Number of instructions fetched each cycle (Total)
system.cpu.fetch.rateDist::0                       24     92.31%     92.31% # Number of instructions fetched each cycle (Total)
system.cpu.fetch.rateDist::1                        1      3.85%     96.15% # Number of instructions fetched each cycle (Total)
system.cpu.fetch.rateDist::2                        0      0.00%     96.15% # Number of instructions fetched each cycle (Total)
system.cpu.fetch.rateDist::3                        0      0.00%     96.15% # Number of instructions fetched each cycle (Total)
system.cpu.fetch.rateDist::4                        0      0.00%     96.15% # Number of instructions fetched each cycle (Total)
system.cpu.fetch.rateDist::5                        0      0.00%     96.15% # Number of instructions fetched each cycle (Total)
system.cpu.fetch.rateDist::6                        0      0.00%     96.15% # Number of instructions fetched each cycle (Total)
system.cpu.fetch.rateDist::7                        0      0.00%     96.15% # Number of instructions fetched each cycle (Total)
system.cpu.fetch.rateDist::8                        1      3.85%    100.00% # Number of instructions fetched each cycle (Total)
system.cpu.fetch.rateDist::overflows                0      0.00%    100.00% # Number of instructions fetched each cycle (Total)
system.cpu.fetch.rateDist::min_value                0                       # Number of instructions fetched each cycle (Total)
system.cpu.fetch.rateDist::max_value                8                       # Number of instructions fetched each cycle (Total)
[...]
system.switch_cpus_1.iq.int_inst_queue_wakeup_accesses    319695709                       # Number of integer instruction queue wakeup accesses
system.switch_cpus_1.iq.fp_inst_queue_reads     69685918                       # Number of floating instruction queue reads
system.switch_cpus_1.iq.fp_inst_queue_writes    112021372                       # Number of floating instruction queue writes
system.switch_cpus_1.iq.fp_inst_queue_wakeup_accesses     28695830                       # Number of floating instruction queue wakeup accesses
system.switch_cpus_1.iq.int_alu_accesses    350122946                       # Number of integer alu accesses
system.switch_cpus_1.iq.fp_alu_accesses      35025546                       # Number of floating point alu accesses
system.switch_cpus_1.iew.lsq.thread0.forwLoads      9325724                       # Number of loads that had data forwarded from stores
system.switch_cpus_1.iew.lsq.thread0.invAddrLoads            0                       # Number of loads ignored due to an invalid address
system.switch_cpus_1.iew.lsq.thread0.squashedLoads     67917723                       # Number of loads squashed
system.switch_cpus_1.iew.lsq.thread0.ignoredResponses        24231                       # Number of memory responses ignored because the instruction is squashed
system.switch_cpus_1.iew.lsq.thread0.memOrderViolation        10999                       # Number of memory ordering violations
system.switch_cpus_1.iew.lsq.thread0.squashedStores     29361064                       # Number of stores squashed
system.switch_cpus_1.iew.lsq.thread0.invAddrSwpfs            0                       # Number of software prefetches ignored due to an invalid address
system.switch_cpus_1.iew.lsq.thread0.blockedLoads            0                       # Number of blocked loads due to partial load-store forwarding
system.switch_cpus_1.iew.lsq.thread0.rescheduledLoads          397                       # Number of loads that were rescheduled
system.switch_cpus_1.iew.lsq.thread0.cacheBlocked      2495794                       # Number of times an access to memory failed due to the cache being blocked
system.switch_cpus_1.iew.iewIdleCycles              0                       # Number of cycles IEW is idle
system.switch_cpus_1.iew.iewSquashCycles      3790757                       # Number of cycles IEW is squashing
system.switch_cpus_1.iew.iewBlockCycles     153296049                       # Number of cycles IEW is blocking
system.switch_cpus_1.iew.iewUnblockCycles     82733846                       # Number of cycles IEW is unblocking
system.switch_cpus_1.iew.iewDispatchedInsts    486050898                       # Number of instructions dispatched to IQ
system.switch_cpus_1.iew.iewDispSquashedInsts       121993                       # Number of squashed instructions skipped by dispatch
system.switch_cpus_1.iew.iewDispLoadInsts    115644979                       # Number of dispatched load instructions
system.switch_cpus_1.iew.iewDispStoreInsts     58589891                       # Number of dispatched store instructions
system.switch_cpus_1.iew.iewDispNonSpecInsts       529641                       # Number of dispatched non-speculative instructions
system.switch_cpus_1.iew.iewIQFullEvents      1255733                       # Number of times the IQ has become full, causing a stall
system.switch_cpus_1.iew.iewLSQFullEvents     81229957                       # Number of times the LSQ has become full, causing a stall
system.switch_cpus_1.iew.memOrderViolationEvents        10999                       # Number of memory order violations
system.switch_cpus_1.iew.predictedTakenIncorrect       744739                       # Number of branches that were predicted taken incorrectly
system.switch_cpus_1.iew.predictedNotTakenIncorrect      1134123                       # Number of branches that were predicted not taken incorrectly
system.switch_cpus_1.iew.branchMispredicts      1878862                       # Number of branch mispredicts detected at execute
system.switch_cpus_1.iew.iewExecutedInsts    374018052                       # Number of executed instructions
system.switch_cpus_1.iew.iewExecLoadInsts    102127385                       # Number of load instructions executed
system.switch_cpus_1.iew.iewExecSquashedInsts      4194116                       # Number of squashed instructions skipped in execute
system.switch_cpus_1.iew.exec_swp                   0                       # number of swp insts executed
system.switch_cpus_1.iew.exec_nop            23132487                       # number of nop insts executed
system.switch_cpus_1.iew.exec_refs          154260746                       # number of memory reference insts executed
system.switch_cpus_1.iew.exec_branches       72290603                       # Number of branches executed
system.switch_cpus_1.iew.exec_stores         52133361                       # Number of stores executed
system.switch_cpus_1.iew.exec_rate           0.541431                       # Inst execution rate
system.switch_cpus_1.iew.wb_sent            368816498                       # cumulative count of insts sent to commit
system.switch_cpus_1.iew.wb_count           348391539                       # cumulative count of insts written-back
system.switch_cpus_1.iew.wb_producers       176397406                       # num instructions producing a value
system.switch_cpus_1.iew.wb_consumers       258752367                       # num instructions consuming a value
system.switch_cpus_1.iew.wb_rate             0.504334                       # insts written-back per cycle
system.switch_cpus_1.iew.wb_fanout           0.681723                       # average fanout of values written-back
system.switch_cpus_1.commit.commitSquashedInsts    228801848                       # The number of squashed insts skipped by commit
system.switch_cpus_1.commit.commitNonSpecStalls       665598                       # The number of times commit has been forced to stall to communicate backwards
system.switch_cpus_1.commit.branchMispredicts      1437356                       # The number of times a branch was mispredicted
system.switch_cpus_1.commit.committed_per_cycle::samples    657990051                       # Number of insts commited each cycle
system.switch_cpus_1.commit.committed_per_cycle::mean     0.324616                       # Number of insts commited each cycle
system.switch_cpus_1.commit.committed_per_cycle::stdev     1.376565                       # Number of insts commited each cycle
system.switch_cpus_1.commit.committed_per_cycle::underflows            0      0.00%      0.00% # Number of insts commited each cycle
system.switch_cpus_1.commit.committed_per_cycle::0    603713532     91.75%     91.75% # Number of insts commited each cycle
system.switch_cpus_1.commit.committed_per_cycle::1     19940335      3.03%     94.78% # Number of insts commited each cycle
system.switch_cpus_1.commit.committed_per_cycle::2      6016014      0.91%     95.70% # Number of insts commited each cycle
system.switch_cpus_1.commit.committed_per_cycle::3      3747949      0.57%     96.27% # Number of insts commited each cycle
system.switch_cpus_1.commit.committed_per_cycle::4      3307546      0.50%     96.77% # Number of insts commited each cycle
system.switch_cpus_1.commit.committed_per_cycle::5      2550609      0.39%     97.16% # Number of insts commited each cycle
system.switch_cpus_1.commit.committed_per_cycle::6      1911566      0.29%     97.45% # Number of insts commited each cycle
system.switch_cpus_1.commit.committed_per_cycle::7      1494425      0.23%     97.67% # Number of insts commited each cycle
system.switch_cpus_1.commit.committed_per_cycle::8     15308075      2.33%    100.00% # Number of insts commited each cycle
system.switch_cpus_1.commit.committed_per_cycle::overflows            0      0.00%    100.00% # Number of insts commited each cycle
system.switch_cpus_1.commit.committed_per_cycle::min_value            0                       # Number of insts commited each cycle
system.switch_cpus_1.commit.committed_per_cycle::max_value            8                       # Number of insts commited each cycle
system.switch_cpus_1.commit.committed_per_cycle::total    657990051                       # Number of insts commited each cycle
system.switch_cpus_1.commit.committedInsts    213594410                       # Number of instructions committed
system.switch_cpus_1.commit.committedOps    213594410                       # Number of ops (including micro ops) committed
system.switch_cpus_1.commit.swp_count               0                       # Number of s/w prefetches committed
system.switch_cpus_1.commit.refs             76956073                       # Number of memory references committed
system.switch_cpus_1.commit.loads            47727246                       # Number of loads committed
system.switch_cpus_1.commit.membars            332799                       # Number of memory barriers committed
system.switch_cpus_1.commit.branches         42872050                       # Number of branches committed
system.switch_cpus_1.commit.fp_insts         19258208                       # Number of committed floating point instructions.
system.switch_cpus_1.commit.int_insts       185197309                       # Number of committed integer instructions.
system.switch_cpus_1.commit.function_calls      6276853                       # Number of function calls committed.
system.switch_cpus_1.commit.op_class_0::No_OpClass     13768422      6.45%      6.45% # Class of committed instruction
system.switch_cpus_1.commit.op_class_0::IntAlu    110964867     51.95%     58.40% # Class of committed instruction
system.switch_cpus_1.commit.op_class_0::IntMult        87084      0.04%     58.44% # Class of committed instruction
system.switch_cpus_1.commit.op_class_0::IntDiv            0      0.00%     58.44% # Class of committed instruction
system.switch_cpus_1.commit.op_class_0::FloatAdd      6284834      2.94%     61.38% # Class of committed instruction
system.switch_cpus_1.commit.op_class_0::FloatCmp      4706081      2.20%     63.58% # Class of committed instruction
system.switch_cpus_1.commit.op_class_0::FloatCvt       352967      0.17%     63.75% # Class of committed instruction
system.switch_cpus_1.commit.op_class_0::FloatMult        54220      0.03%     63.77% # Class of committed instruction
system.switch_cpus_1.commit.op_class_0::FloatMultAcc            0      0.00%     63.77% # Class of committed instruction
system.switch_cpus_1.commit.op_class_0::FloatDiv        87048      0.04%     63.82% # Class of committed instruction
system.switch_cpus_1.commit.op_class_0::FloatMisc            0      0.00%     63.82% # Class of committed instruction
system.switch_cpus_1.commit.op_class_0::FloatSqrt           15      0.00%     63.82% # Class of committed instruction
system.switch_cpus_1.commit.op_class_0::SimdAdd            0      0.00%     63.82% # Class of committed instruction
system.switch_cpus_1.commit.op_class_0::SimdAddAcc            0      0.00%     63.82% # Class of committed instruction
system.switch_cpus_1.commit.op_class_0::SimdAlu            0      0.00%     63.82% # Class of committed instruction
system.switch_cpus_1.commit.op_class_0::SimdCmp            0      0.00%     63.82% # Class of committed instruction
system.switch_cpus_1.commit.op_class_0::SimdCvt            0      0.00%     63.82% # Class of committed instruction
system.switch_cpus_1.commit.op_class_0::SimdMisc            0      0.00%     63.82% # Class of committed instruction
system.switch_cpus_1.commit.op_class_0::SimdMult            0      0.00%     63.82% # Class of committed instruction
system.switch_cpus_1.commit.op_class_0::SimdMultAcc            0      0.00%     63.82% # Class of committed instruction
system.switch_cpus_1.commit.op_class_0::SimdShift            0      0.00%     63.82% # Class of committed instruction
system.switch_cpus_1.commit.op_class_0::SimdShiftAcc            0      0.00%     63.82% # Class of committed instruction
system.switch_cpus_1.commit.op_class_0::SimdSqrt            0      0.00%     63.82% # Class of committed instruction
system.switch_cpus_1.commit.op_class_0::SimdFloatAdd            0      0.00%     63.82% # Class of committed instruction
system.switch_cpus_1.commit.op_class_0::SimdFloatAlu            0      0.00%     63.82% # Class of committed instruction
system.switch_cpus_1.commit.op_class_0::SimdFloatCmp            0      0.00%     63.82% # Class of committed instruction
system.switch_cpus_1.commit.op_class_0::SimdFloatCvt            0      0.00%     63.82% # Class of committed instruction
system.switch_cpus_1.commit.op_class_0::SimdFloatDiv            0      0.00%     63.82% # Class of committed instruction
system.switch_cpus_1.commit.op_class_0::SimdFloatMisc            0      0.00%     63.82% # Class of committed instruction
system.switch_cpus_1.commit.op_class_0::SimdFloatMult            0      0.00%     63.82% # Class of committed instruction
system.switch_cpus_1.commit.op_class_0::SimdFloatMultAcc            0      0.00%     63.82% # Class of committed instruction
system.switch_cpus_1.commit.op_class_0::SimdFloatSqrt            0      0.00%     63.82% # Class of committed instruction
system.switch_cpus_1.commit.op_class_0::MemRead     41999437     19.66%     83.48% # Class of committed instruction
system.switch_cpus_1.commit.op_class_0::MemWrite     27516392     12.88%     96.36% # Class of committed instruction
system.switch_cpus_1.commit.op_class_0::FloatMemRead      6060608      2.84%     99.20% # Class of committed instruction
system.switch_cpus_1.commit.op_class_0::FloatMemWrite      1712435      0.80%    100.00% # Class of committed instruction
system.switch_cpus_1.commit.op_class_0::IprAccess            0      0.00%    100.00% # Class of committed instruction
system.switch_cpus_1.commit.op_class_0::InstPrefetch            0      0.00%    100.00% # Class of committed instruction
system.switch_cpus_1.commit.op_class_0::total    213594410                       # Class of committed instruction
system.switch_cpus_1.commit.bw_lim_events     15308075                       # number cycles where commit BW limit reached
system.switch_cpus_1.rob.rob_reads         1054596887                       # The number of ROB reads
system.switch_cpus_1.rob.rob_writes         916414888                       # The number of ROB writes
system.switch_cpus_1.timesIdled                 20702                       # Number of times that the entire CPU went into an idle state and unscheduled itself
system.switch_cpus_1.idleCycles               1232069                       # Total number of cycles that the CPU has spent unscheduled due to idling
system.switch_cpus_1.committedInsts         200000000                       # Number of Instructions Simulated
system.switch_cpus_1.committedOps           200000000                       # Number of Ops (including micro ops) Simulated
system.switch_cpus_1.cpi                     3.453974                       # CPI: Cycles Per Instruction
system.switch_cpus_1.cpi_total               3.453974                       # CPI: Total CPI of All Threads
system.switch_cpus_1.ipc                     0.289522                       # IPC: Instructions Per Cycle
system.switch_cpus_1.ipc_total               0.289522                       # IPC: Total IPC of All Threads
system.switch_cpus_1.int_regfile_reads      474330904                       # number of integer regfile reads
system.switch_cpus_1.int_regfile_writes     218433420                       # number of integer regfile writes
system.switch_cpus_1.fp_regfile_reads        26270908                       # number of floating regfile reads
system.switch_cpus_1.fp_regfile_writes       19751267                       # number of floating regfile writes
system.switch_cpus_1.misc_regfile_reads        925648                       # number of misc regfile reads
system.switch_cpus_1.misc_regfile_writes       752604                       # number of misc regfile writes
system.tol3bus.snoop_filter.tot_requests     44292731                       # Total number of requests made to the snoop filter.
system.tol3bus.snoop_filter.hit_single_requests     22146725                       # Number of requests hitting in the snoop filter with a single holder of the requested data.
system.tol3bus.snoop_filter.hit_multi_requests            0                       # Number of requests hitting in the snoop filter with multiple (>1) holders of the requested data.
system.tol3bus.snoop_filter.tot_snoops         239659                       # Total number of snoops made to the snoop filter.
system.tol3bus.snoop_filter.hit_single_snoops       239659                       # Number of snoops hitting in the snoop filter with a single holder of the requested data.
system.tol3bus.snoop_filter.hit_multi_snoops            0                       # Number of snoops hitting in the snoop filter with multiple (>1) holders of the requested data.
system.tol3bus.pwrStateResidencyTicks::UNDEFINED 129445855560675                       # Cumulative time (in ticks) in various power states
system.tol3bus.trans_dist::ReadResp          18858653                       # Transaction distribution
system.tol3bus.trans_dist::WritebackDirty     17079922                       # Transaction distribution
system.tol3bus.trans_dist::CleanEvict        19864644                       # Transaction distribution
system.tol3bus.trans_dist::UpgradeReq            1904                       # Transaction distribution
system.tol3bus.trans_dist::UpgradeResp           1904                       # Transaction distribution
system.tol3bus.trans_dist::ReadExReq          3287353                       # Transaction distribution
system.tol3bus.trans_dist::ReadExResp         3287353                       # Transaction distribution
system.tol3bus.trans_dist::ReadSharedReq     18858653                       # Transaction distribution
system.tol3bus.pkt_count_system.cpu.l2.mem_side::system.l3.cpu_side     66440641                       # Packet count per connected master and slave (bytes)
system.tol3bus.pkt_size_system.cpu.l2.mem_side::system.l3.cpu_side   2114119104                       # Cumulative packet size per connected master and slave (bytes)
system.tol3bus.snoops                        14799745                       # Total snoops (count)
system.tol3bus.snoopTraffic                 396340288                       # Total snoop traffic (bytes)
system.tol3bus.snoop_fanout::samples         36947655                       # Request fanout histogram
system.tol3bus.snoop_fanout::mean            0.006486                       # Request fanout histogram
system.tol3bus.snoop_fanout::stdev           0.080277                       # Request fanout histogram
system.tol3bus.snoop_fanout::underflows             0      0.00%      0.00% # Request fanout histogram
system.tol3bus.snoop_fanout::0               36707996     99.35%     99.35% # Request fanout histogram
system.tol3bus.snoop_fanout::1                 239659      0.65%    100.00% # Request fanout histogram
system.tol3bus.snoop_fanout::overflows              0      0.00%    100.00% # Request fanout histogram
system.tol3bus.snoop_fanout::min_value              0                       # Request fanout histogram
system.tol3bus.snoop_fanout::max_value              1                       # Request fanout histogram
system.tol3bus.snoop_fanout::total           36947655                       # Request fanout histogram
system.tol3bus.reqLayer0.occupancy        18374885388                       # Layer occupancy (ticks)
system.tol3bus.reqLayer0.utilization              0.7                       # Layer utilization (%)
system.tol3bus.respLayer0.occupancy       14749874028                       # Layer occupancy (ticks)
system.tol3bus.respLayer0.utilization             0.6                       # Layer utilization (%)

---------- End Simulation Statistics   ----------
