
---------- Begin Simulation Statistics ----------
sim_seconds                                  1.136403                       # Number of seconds simulated
sim_ticks                                1136403464661                       # Number of ticks simulated
final_tick                               110897537672448                       # Number of ticks from beginning of simulation (restored from checkpoints and never reset)
sim_freq                                 1000000000000                       # Frequency of simulated ticks
host_inst_rate                                 606454                       # Simulator instruction rate (inst/s)
host_op_rate                                   606454                       # Simulator op (including micro ops) rate (op/s)
host_tick_rate                              574313390                       # Simulator tick rate (ticks/s)
host_mem_usage                                2382000                       # Number of bytes of host memory used
host_seconds                                  1978.72                       # Real time elapsed on the host
sim_insts                                  1200000011                       # Number of instructions simulated
sim_ops                                    1200000011                       # Number of ops (including micro ops) simulated
system.voltage_domain.voltage                       1                       # Voltage in Volts
system.clk_domain.clock                          1000                       # Clock period in ticks
system.mem_ctrls0.pwrStateResidencyTicks::UNDEFINED 110897537672448                       # Cumulative time (in ticks) in various power states
system.mem_ctrls0.bytes_read::cpu.inst             64                       # Number of bytes read from this memory
system.mem_ctrls0.bytes_read::switch_cpus.inst         3968                       # Number of bytes read from this memory
system.mem_ctrls0.bytes_read::switch_cpus.data      1020416                       # Number of bytes read from this memory
system.mem_ctrls0.bytes_read::switch_cpus_1.inst          512                       # Number of bytes read from this memory
system.mem_ctrls0.bytes_read::switch_cpus_1.data         6848                       # Number of bytes read from this memory
system.mem_ctrls0.bytes_read::total           1031808                       # Number of bytes read from this memory
system.mem_ctrls0.bytes_inst_read::cpu.inst           64                       # Number of instructions bytes read from this memory
system.mem_ctrls0.bytes_inst_read::switch_cpus.inst         3968                       # Number of instructions bytes read from this memory
system.mem_ctrls0.bytes_inst_read::switch_cpus_1.inst          512                       # Number of instructions bytes read from this memory
system.mem_ctrls0.bytes_inst_read::total         4544                       # Number of instructions bytes read from this memory
system.mem_ctrls0.num_reads::cpu.inst               1                       # Number of read requests responded to by this memory
system.mem_ctrls0.num_reads::switch_cpus.inst           62                       # Number of read requests responded to by this memory
system.mem_ctrls0.num_reads::switch_cpus.data        15944                       # Number of read requests responded to by this memory
system.mem_ctrls0.num_reads::switch_cpus_1.inst            8                       # Number of read requests responded to by this memory
system.mem_ctrls0.num_reads::switch_cpus_1.data          107                       # Number of read requests responded to by this memory
system.mem_ctrls0.num_reads::total              16122                       # Number of read requests responded to by this memory
system.mem_ctrls0.bw_read::cpu.inst                56                       # Total read bandwidth from this memory (bytes/s)
system.mem_ctrls0.bw_read::switch_cpus.inst         3492                       # Total read bandwidth from this memory (bytes/s)
system.mem_ctrls0.bw_read::switch_cpus.data       897935                       # Total read bandwidth from this memory (bytes/s)
system.mem_ctrls0.bw_read::switch_cpus_1.inst          451                       # Total read bandwidth from this memory (bytes/s)
system.mem_ctrls0.bw_read::switch_cpus_1.data         6026                       # Total read bandwidth from this memory (bytes/s)
system.mem_ctrls0.bw_read::total               907959                       # Total read bandwidth from this memory (bytes/s)
system.mem_ctrls0.bw_inst_read::cpu.inst           56                       # Instruction read bandwidth from this memory (bytes/s)
system.mem_ctrls0.bw_inst_read::switch_cpus.inst         3492                       # Instruction read bandwidth from this memory (bytes/s)
system.mem_ctrls0.bw_inst_read::switch_cpus_1.inst          451                       # Instruction read bandwidth from this memory (bytes/s)
system.mem_ctrls0.bw_inst_read::total            3999                       # Instruction read bandwidth from this memory (bytes/s)
system.mem_ctrls0.bw_total::cpu.inst               56                       # Total bandwidth to/from this memory (bytes/s)
system.mem_ctrls0.bw_total::switch_cpus.inst         3492                       # Total bandwidth to/from this memory (bytes/s)
system.mem_ctrls0.bw_total::switch_cpus.data       897935                       # Total bandwidth to/from this memory (bytes/s)
system.mem_ctrls0.bw_total::switch_cpus_1.inst          451                       # Total bandwidth to/from this memory (bytes/s)
system.mem_ctrls0.bw_total::switch_cpus_1.data         6026                       # Total bandwidth to/from this memory (bytes/s)
system.mem_ctrls0.bw_total::total              907959                       # Total bandwidth to/from this memory (bytes/s)
system.mem_ctrls0.readReqs                      16122                       # Number of read requests accepted
system.mem_ctrls0.writeReqs                         0                       # Number of write requests accepted
system.mem_ctrls0.readBursts                    16122                       # Number of DRAM read bursts, including those serviced by the write queue
system.mem_ctrls0.writeBursts                       0                       # Number of DRAM write bursts, including those merged in the write queue
system.mem_ctrls0.bytesReadDRAM               1031808                       # Total number of bytes read from DRAM
system.mem_ctrls0.bytesReadWrQ                      0                       # Total number of bytes read from write queue
system.mem_ctrls0.bytesWritten                      0                       # Total number of bytes written to DRAM
system.mem_ctrls0.bytesReadSys                1031808                       # Total read bytes from the system interface side
system.mem_ctrls0.bytesWrittenSys                   0                       # Total written bytes from the system interface side
system.mem_ctrls0.servicedByWrQ                     0                       # Number of DRAM read bursts serviced by the write queue
system.mem_ctrls0.mergedWrBursts                    0                       # Number of DRAM write bursts merged with an existing one
system.mem_ctrls0.neitherReadNorWriteReqs            0                       # Number of requests that are neither read nor write
system.mem_ctrls0.perBankRdBursts::0              962                       # Per bank write bursts
system.mem_ctrls0.perBankRdBursts::1             1021                       # Per bank write bursts
system.mem_ctrls0.perBankRdBursts::2              978                       # Per bank write bursts
system.mem_ctrls0.perBankRdBursts::3             1018                       # Per bank write bursts
system.mem_ctrls0.perBankRdBursts::4              976                       # Per bank write bursts
system.mem_ctrls0.perBankRdBursts::5             1084                       # Per bank write bursts
system.mem_ctrls0.perBankRdBursts::6             1123                       # Per bank write bursts
system.mem_ctrls0.perBankRdBursts::7             1030                       # Per bank write bursts
system.mem_ctrls0.perBankRdBursts::8             1077                       # Per bank write bursts
system.mem_ctrls0.perBankRdBursts::9              981                       # Per bank write bursts
system.mem_ctrls0.perBankRdBursts::10            1053                       # Per bank write bursts
system.mem_ctrls0.perBankRdBursts::11            1034                       # Per bank write bursts
system.mem_ctrls0.perBankRdBursts::12             855                       # Per bank write bursts
system.mem_ctrls0.perBankRdBursts::13             911                       # Per bank write bursts
system.mem_ctrls0.perBankRdBursts::14             997                       # Per bank write bursts
system.mem_ctrls0.perBankRdBursts::15            1022                       # Per bank write bursts
system.mem_ctrls0.perBankWrBursts::0                0                       # Per bank write bursts
system.mem_ctrls0.perBankWrBursts::1                0                       # Per bank write bursts
system.mem_ctrls0.perBankWrBursts::2                0                       # Per bank write bursts
system.mem_ctrls0.perBankWrBursts::3                0                       # Per bank write bursts
system.mem_ctrls0.perBankWrBursts::4                0                       # Per bank write bursts
system.mem_ctrls0.perBankWrBursts::5                0                       # Per bank write bursts
system.mem_ctrls0.perBankWrBursts::6                0                       # Per bank write bursts
system.mem_ctrls0.perBankWrBursts::7                0                       # Per bank write bursts
system.mem_ctrls0.perBankWrBursts::8                0                       # Per bank write bursts
system.mem_ctrls0.perBankWrBursts::9                0                       # Per bank write bursts
system.mem_ctrls0.perBankWrBursts::10               0                       # Per bank write bursts
system.mem_ctrls0.perBankWrBursts::11               0                       # Per bank write bursts
system.mem_ctrls0.perBankWrBursts::12               0                       # Per bank write bursts
system.mem_ctrls0.perBankWrBursts::13               0                       # Per bank write bursts
system.mem_ctrls0.perBankWrBursts::14               0                       # Per bank write bursts
system.mem_ctrls0.perBankWrBursts::15               0                       # Per bank write bursts
system.mem_ctrls0.numRdRetry                        0                       # Number of times read queue was full causing retry
system.mem_ctrls0.numWrRetry                        0                       # Number of times write queue was full causing retry
system.mem_ctrls0.totGap                 1117948388211                       # Total gap between requests
system.mem_ctrls0.readPktSize::0                    0                       # Read request sizes (log2)
system.mem_ctrls0.readPktSize::1                    0                       # Read request sizes (log2)
system.mem_ctrls0.readPktSize::2                    0                       # Read request sizes (log2)
system.mem_ctrls0.readPktSize::3                    0                       # Read request sizes (log2)
system.mem_ctrls0.readPktSize::4                    0                       # Read request sizes (log2)
system.mem_ctrls0.readPktSize::5                    0                       # Read request sizes (log2)
system.mem_ctrls0.readPktSize::6                16122                       # Read request sizes (log2)
system.mem_ctrls0.writePktSize::0                   0                       # Write request sizes (log2)
system.mem_ctrls0.writePktSize::1                   0                       # Write request sizes (log2)
system.mem_ctrls0.writePktSize::2                   0                       # Write request sizes (log2)
system.mem_ctrls0.writePktSize::3                   0                       # Write request sizes (log2)
system.mem_ctrls0.writePktSize::4                   0                       # Write request sizes (log2)
system.mem_ctrls0.writePktSize::5                   0                       # Write request sizes (log2)
system.mem_ctrls0.writePktSize::6                   0                       # Write request sizes (log2)
system.mem_ctrls0.rdQLenPdf::0                  16111                       # What read queue length does an incoming req see
system.mem_ctrls0.rdQLenPdf::1                     10                       # What read queue length does an incoming req see
system.mem_ctrls0.rdQLenPdf::2                      1                       # What read queue length does an incoming req see
system.mem_ctrls0.rdQLenPdf::3                      0                       # What read queue length does an incoming req see
system.mem_ctrls0.rdQLenPdf::4                      0                       # What read queue length does an incoming req see
system.mem_ctrls0.rdQLenPdf::5                      0                       # What read queue length does an incoming req see
system.mem_ctrls0.rdQLenPdf::6                      0                       # What read queue length does an incoming req see
system.mem_ctrls0.rdQLenPdf::7                      0                       # What read queue length does an incoming req see
system.mem_ctrls0.rdQLenPdf::8                      0                       # What read queue length does an incoming req see
system.mem_ctrls0.rdQLenPdf::9                      0                       # What read queue length does an incoming req see
system.mem_ctrls0.rdQLenPdf::10                     0                       # What read queue length does an incoming req see
system.mem_ctrls0.rdQLenPdf::11                     0                       # What read queue length does an incoming req see
system.mem_ctrls0.rdQLenPdf::12                     0                       # What read queue length does an incoming req see
system.mem_ctrls0.rdQLenPdf::13                     0                       # What read queue length does an incoming req see
system.mem_ctrls0.rdQLenPdf::14                     0                       # What read queue length does an incoming req see
system.mem_ctrls0.rdQLenPdf::15                     0                       # What read queue length does an incoming req see
system.mem_ctrls0.rdQLenPdf::16                     0                       # What read queue length does an incoming req see
system.mem_ctrls0.rdQLenPdf::17                     0                       # What read queue length does an incoming req see
system.mem_ctrls0.rdQLenPdf::18                     0                       # What read queue length does an incoming req see
system.mem_ctrls0.rdQLenPdf::19                     0                       # What read queue length does an incoming req see
system.mem_ctrls0.rdQLenPdf::20                     0                       # What read queue length does an incoming req see
system.mem_ctrls0.rdQLenPdf::21                     0                       # What read queue length does an incoming req see
system.mem_ctrls0.rdQLenPdf::22                     0                       # What read queue length does an incoming req see
system.mem_ctrls0.rdQLenPdf::23                     0                       # What read queue length does an incoming req see
system.mem_ctrls0.rdQLenPdf::24                     0                       # What read queue length does an incoming req see
system.mem_ctrls0.rdQLenPdf::25                     0                       # What read queue length does an incoming req see
system.mem_ctrls0.rdQLenPdf::26                     0                       # What read queue length does an incoming req see
system.mem_ctrls0.rdQLenPdf::27                     0                       # What read queue length does an incoming req see
system.mem_ctrls0.rdQLenPdf::28                     0                       # What read queue length does an incoming req see
system.mem_ctrls0.rdQLenPdf::29                     0                       # What read queue length does an incoming req see
system.mem_ctrls0.rdQLenPdf::30                     0                       # What read queue length does an incoming req see
system.mem_ctrls0.rdQLenPdf::31                     0                       # What read queue length does an incoming req see
system.mem_ctrls0.wrQLenPdf::0                      0                       # What write queue length does an incoming req see
system.mem_ctrls0.wrQLenPdf::1                      0                       # What write queue length does an incoming req see
system.mem_ctrls0.wrQLenPdf::2                      0                       # What write queue length does an incoming req see
system.mem_ctrls0.wrQLenPdf::3                      0                       # What write queue length does an incoming req see
system.mem_ctrls0.wrQLenPdf::4                      0                       # What write queue length does an incoming req see
system.mem_ctrls0.wrQLenPdf::5                      0                       # What write queue length does an incoming req see
system.mem_ctrls0.wrQLenPdf::6                      0                       # What write queue length does an incoming req see
system.mem_ctrls0.wrQLenPdf::7                      0                       # What write queue length does an incoming req see
system.mem_ctrls0.wrQLenPdf::8                      0                       # What write queue length does an incoming req see
system.mem_ctrls0.wrQLenPdf::9                      0                       # What write queue length does an incoming req see
system.mem_ctrls0.wrQLenPdf::10                     0                       # What write queue length does an incoming req see
system.mem_ctrls0.wrQLenPdf::11                     0                       # What write queue length does an incoming req see
system.mem_ctrls0.wrQLenPdf::12                     0                       # What write queue length does an incoming req see
system.mem_ctrls0.wrQLenPdf::13                     0                       # What write queue length does an incoming req see
system.mem_ctrls0.wrQLenPdf::14                     0                       # What write queue length does an incoming req see
system.mem_ctrls0.wrQLenPdf::15                     0                       # What write queue length does an incoming req see
system.mem_ctrls0.wrQLenPdf::16                     0                       # What write queue length does an incoming req see
system.mem_ctrls0.wrQLenPdf::17                     0                       # What write queue length does an incoming req see
system.mem_ctrls0.wrQLenPdf::18                     0                       # What write queue length does an incoming req see
system.mem_ctrls0.wrQLenPdf::19                     0                       # What write queue length does an incoming req see
system.mem_ctrls0.wrQLenPdf::20                     0                       # What write queue length does an incoming req see
system.mem_ctrls0.wrQLenPdf::21                     0                       # What write queue length does an incoming req see
system.mem_ctrls0.wrQLenPdf::22                     0                       # What write queue length does an incoming req see
system.mem_ctrls0.wrQLenPdf::23                     0                       # What write queue length does an incoming req see
system.mem_ctrls0.wrQLenPdf::24                     0                       # What write queue length does an incoming req see
system.mem_ctrls0.wrQLenPdf::25                     0                       # What write queue length does an incoming req see
system.mem_ctrls0.wrQLenPdf::26                     0                       # What write queue length does an incoming req see
system.mem_ctrls0.wrQLenPdf::27                     0                       # What write queue length does an incoming req see
system.mem_ctrls0.wrQLenPdf::28                     0                       # What write queue length does an incoming req see
system.mem_ctrls0.wrQLenPdf::29                     0                       # What write queue length does an incoming req see
system.mem_ctrls0.wrQLenPdf::30                     0                       # What write queue length does an incoming req see
system.mem_ctrls0.wrQLenPdf::31                     0                       # What write queue length does an incoming req see
system.mem_ctrls0.wrQLenPdf::32                     0                       # What write queue length does an incoming req see
system.mem_ctrls0.wrQLenPdf::33                     0                       # What write queue length does an incoming req see
system.mem_ctrls0.wrQLenPdf::34                     0                       # What write queue length does an incoming req see
system.mem_ctrls0.wrQLenPdf::35                     0                       # What write queue length does an incoming req see
system.mem_ctrls0.wrQLenPdf::36                     0                       # What write queue length does an incoming req see
system.mem_ctrls0.wrQLenPdf::37                     0                       # What write queue length does an incoming req see
system.mem_ctrls0.wrQLenPdf::38                     0                       # What write queue length does an incoming req see
system.mem_ctrls0.wrQLenPdf::39                     0                       # What write queue length does an incoming req see
system.mem_ctrls0.wrQLenPdf::40                     0                       # What write queue length does an incoming req see
system.mem_ctrls0.wrQLenPdf::41                     0                       # What write queue length does an incoming req see
system.mem_ctrls0.wrQLenPdf::42                     0                       # What write queue length does an incoming req see
system.mem_ctrls0.wrQLenPdf::43                     0                       # What write queue length does an incoming req see
system.mem_ctrls0.wrQLenPdf::44                     0                       # What write queue length does an incoming req see
system.mem_ctrls0.wrQLenPdf::45                     0                       # What write queue length does an incoming req see
system.mem_ctrls0.wrQLenPdf::46                     0                       # What write queue length does an incoming req see
system.mem_ctrls0.wrQLenPdf::47                     0                       # What write queue length does an incoming req see
system.mem_ctrls0.wrQLenPdf::48                     0                       # What write queue length does an incoming req see
system.mem_ctrls0.wrQLenPdf::49                     0                       # What write queue length does an incoming req see
system.mem_ctrls0.wrQLenPdf::50                     0                       # What write queue length does an incoming req see
system.mem_ctrls0.wrQLenPdf::51                     0                       # What write queue length does an incoming req see
system.mem_ctrls0.wrQLenPdf::52                     0                       # What write queue length does an incoming req see
system.mem_ctrls0.wrQLenPdf::53                     0                       # What write queue length does an incoming req see
system.mem_ctrls0.wrQLenPdf::54                     0                       # What write queue length does an incoming req see
system.mem_ctrls0.wrQLenPdf::55                     0                       # What write queue length does an incoming req see
system.mem_ctrls0.wrQLenPdf::56                     0                       # What write queue length does an incoming req see
system.mem_ctrls0.wrQLenPdf::57                     0                       # What write queue length does an incoming req see
system.mem_ctrls0.wrQLenPdf::58                     0                       # What write queue length does an incoming req see
system.mem_ctrls0.wrQLenPdf::59                     0                       # What write queue length does an incoming req see
system.mem_ctrls0.wrQLenPdf::60                     0                       # What write queue length does an incoming req see
system.mem_ctrls0.wrQLenPdf::61                     0                       # What write queue length does an incoming req see
system.mem_ctrls0.wrQLenPdf::62                     0                       # What write queue length does an incoming req see
system.mem_ctrls0.wrQLenPdf::63                     0                       # What write queue length does an incoming req see
system.mem_ctrls0.bytesPerActivate::samples        10377                       # Bytes accessed per row activation
system.mem_ctrls0.bytesPerActivate::mean    99.432206                       # Bytes accessed per row activation
system.mem_ctrls0.bytesPerActivate::gmean    86.811657                       # Bytes accessed per row activation
system.mem_ctrls0.bytesPerActivate::stdev    69.535211                       # Bytes accessed per row activation
system.mem_ctrls0.bytesPerActivate::0-127         6839     65.91%     65.91% # Bytes accessed per row activation
system.mem_ctrls0.bytesPerActivate::128-255         3140     30.26%     96.16% # Bytes accessed per row activation
system.mem_ctrls0.bytesPerActivate::256-383          256      2.47%     98.63% # Bytes accessed per row activation
system.mem_ctrls0.bytesPerActivate::384-511           86      0.83%     99.46% # Bytes accessed per row activation
system.mem_ctrls0.bytesPerActivate::512-639           38      0.37%     99.83% # Bytes accessed per row activation
system.mem_ctrls0.bytesPerActivate::640-767            7      0.07%     99.89% # Bytes accessed per row activation
system.mem_ctrls0.bytesPerActivate::768-895            3      0.03%     99.92% # Bytes accessed per row activation
system.mem_ctrls0.bytesPerActivate::896-1023            6      0.06%     99.98% # Bytes accessed per row activation
system.mem_ctrls0.bytesPerActivate::1024-1151            2      0.02%    100.00% # Bytes accessed per row activation
system.mem_ctrls0.bytesPerActivate::total        10377                       # Bytes accessed per row activation
system.mem_ctrls0.totQLat                  2724263204                       # Total ticks spent queuing
system.mem_ctrls0.totMemAccLat             3026550704                       # Total ticks spent from burst creation until serviced by the DRAM
system.mem_ctrls0.totBusLat                  80610000                       # Total ticks spent in databus transfers
system.mem_ctrls0.avgQLat                   168977.99                       # Average queueing delay per DRAM burst
system.mem_ctrls0.avgBusLat                   5000.00                       # Average bus latency per DRAM burst
system.mem_ctrls0.avgMemAccLat              187727.99                       # Average memory access latency per DRAM burst
system.mem_ctrls0.avgRdBW                        0.91                       # Average DRAM read bandwidth in MiByte/s
system.mem_ctrls0.avgWrBW                        0.00                       # Average achieved write bandwidth in MiByte/s
system.mem_ctrls0.avgRdBWSys                     0.91                       # Average system read bandwidth in MiByte/s
system.mem_ctrls0.avgWrBWSys                     0.00                       # Average system write bandwidth in MiByte/s
system.mem_ctrls0.peakBW                     12800.00                       # Theoretical peak bandwidth in MiByte/s
system.mem_ctrls0.busUtil                        0.01                       # Data bus utilization in percentage
system.mem_ctrls0.busUtilRead                    0.01                       # Data bus utilization in percentage for reads
system.mem_ctrls0.busUtilWrite                   0.00                       # Data bus utilization in percentage for writes
system.mem_ctrls0.avgRdQLen                      1.00                       # Average read queue length when enqueuing
system.mem_ctrls0.avgWrQLen                      0.00                       # Average write queue length when enqueuing
system.mem_ctrls0.readRowHits                    5745                       # Number of row buffer hits during reads
system.mem_ctrls0.writeRowHits                      0                       # Number of row buffer hits during writes
system.mem_ctrls0.readRowHitRate                35.63                       # Row buffer hit rate for reads
system.mem_ctrls0.writeRowHitRate                 nan                       # Row buffer hit rate for writes
system.mem_ctrls0.avgGap                  69343033.63                       # Average gap between requests
system.mem_ctrls0.pageHitRate                   35.63                       # Row buffer hit rate, read and write combined
system.mem_ctrls0_0.actEnergy                37706340                       # Energy for activate commands per rank (pJ)
system.mem_ctrls0_0.preEnergy                20041395                       # Energy for precharge commands per rank (pJ)
system.mem_ctrls0_0.readEnergy               58490880                       # Energy for read commands per rank (pJ)
system.mem_ctrls0_0.writeEnergy                     0                       # Energy for write commands per rank (pJ)
system.mem_ctrls0_0.refreshEnergy        5526228240.000001                       # Energy for refresh commands per rank (pJ)
system.mem_ctrls0_0.actBackEnergy          1135592190                       # Energy for active background per rank (pJ)
system.mem_ctrls0_0.preBackEnergy           335406720                       # Energy for precharge background per rank (pJ)
system.mem_ctrls0_0.actPowerDownEnergy    12123841860                       # Energy for active power-down per rank (pJ)
system.mem_ctrls0_0.prePowerDownEnergy     8530860960                       # Energy for precharge power-down per rank (pJ)
system.mem_ctrls0_0.selfRefreshEnergy    261575975820                       # Energy for self refresh per rank (pJ)
system.mem_ctrls0_0.totalEnergy          289345873515                       # Total energy per rank (pJ)
system.mem_ctrls0_0.averagePower           254.615445                       # Core power per rank (mW)
system.mem_ctrls0_0.totalIdleTime        1114580451670                       # Total Idle time Per DRAM Rank
system.mem_ctrls0_0.memoryStateTime::IDLE    681482977                       # Time in different power states
system.mem_ctrls0_0.memoryStateTime::REF   2352522000                       # Time in different power states
system.mem_ctrls0_0.memoryStateTime::SREF 1084232639911                       # Time in different power states
system.mem_ctrls0_0.memoryStateTime::PRE_PDN  22215731659                       # Time in different power states
system.mem_ctrls0_0.memoryStateTime::ACT    333708745                       # Time in different power states
system.mem_ctrls0_0.memoryStateTime::ACT_PDN  26587379369                       # Time in different power states
system.mem_ctrls0_1.actEnergy                36385440                       # Energy for activate commands per rank (pJ)
system.mem_ctrls0_1.preEnergy                19339320                       # Energy for precharge commands per rank (pJ)
system.mem_ctrls0_1.readEnergy               56620200                       # Energy for read commands per rank (pJ)
system.mem_ctrls0_1.writeEnergy                     0                       # Energy for write commands per rank (pJ)
system.mem_ctrls0_1.refreshEnergy        4990262160.000001                       # Energy for refresh commands per rank (pJ)
system.mem_ctrls0_1.actBackEnergy          1033694430                       # Energy for active background per rank (pJ)
system.mem_ctrls0_1.preBackEnergy           303001440                       # Energy for precharge background per rank (pJ)
system.mem_ctrls0_1.actPowerDownEnergy    11093921400                       # Energy for active power-down per rank (pJ)
system.mem_ctrls0_1.prePowerDownEnergy     7688866560                       # Energy for precharge power-down per rank (pJ)
system.mem_ctrls0_1.selfRefreshEnergy    262563425400                       # Energy for self refresh per rank (pJ)
system.mem_ctrls0_1.totalEnergy          287787082290                       # Total energy per rank (pJ)
system.mem_ctrls0_1.averagePower           253.243757                       # Core power per rank (mW)
system.mem_ctrls0_1.totalIdleTime        1114904989524                       # Total Idle time Per DRAM Rank
system.mem_ctrls0_1.memoryStateTime::IDLE    614519929                       # Time in different power states
system.mem_ctrls0_1.memoryStateTime::REF   2124128000                       # Time in different power states
system.mem_ctrls0_1.memoryStateTime::SREF 1088992179911                       # Time in different power states
system.mem_ctrls0_1.memoryStateTime::PRE_PDN  20023072155                       # Time in different power states
system.mem_ctrls0_1.memoryStateTime::ACT    320874243                       # Time in different power states
system.mem_ctrls0_1.memoryStateTime::ACT_PDN  24328690423                       # Time in different power states
system.mem_ctrls1.pwrStateResidencyTicks::UNDEFINED 110897537672448                       # Cumulative time (in ticks) in various power states
system.mem_ctrls1.bytes_read::cpu.inst             64                       # Number of bytes read from this memory
system.mem_ctrls1.bytes_read::switch_cpus.inst         4480                       # Number of bytes read from this memory
system.mem_ctrls1.bytes_read::switch_cpus.data      1026496                       # Number of bytes read from this memory
system.mem_ctrls1.bytes_read::switch_cpus_1.inst          832                       # Number of bytes read from this memory
system.mem_ctrls1.bytes_read::switch_cpus_1.data         7744                       # Number of bytes read from this memory
system.mem_ctrls1.bytes_read::total           1039616                       # Number of bytes read from this memory
system.mem_ctrls1.bytes_inst_read::cpu.inst           64                       # Number of instructions bytes read from this memory
system.mem_ctrls1.bytes_inst_read::switch_cpus.inst         4480                       # Number of instructions bytes read from this memory
system.mem_ctrls1.bytes_inst_read::switch_cpus_1.inst          832                       # Number of instructions bytes read from this memory
system.mem_ctrls1.bytes_inst_read::total         5376                       # Number of instructions bytes read from this memory
system.mem_ctrls1.num_reads::cpu.inst               1                       # Number of read requests responded to by this memory
system.mem_ctrls1.num_reads::switch_cpus.inst           70                       # Number of read requests responded to by this memory
system.mem_ctrls1.num_reads::switch_cpus.data        16039                       # Number of read requests responded to by this memory
system.mem_ctrls1.num_reads::switch_cpus_1.inst           13                       # Number of read requests responded to by this memory
system.mem_ctrls1.num_reads::switch_cpus_1.data          121                       # Number of read requests responded to by this memory
system.mem_ctrls1.num_reads::total              16244                       # Number of read requests responded to by this memory
system.mem_ctrls1.bw_read::cpu.inst                56                       # Total read bandwidth from this memory (bytes/s)
system.mem_ctrls1.bw_read::switch_cpus.inst         3942                       # Total read bandwidth from this memory (bytes/s)
system.mem_ctrls1.bw_read::switch_cpus.data       903285                       # Total read bandwidth from this memory (bytes/s)
system.mem_ctrls1.bw_read::switch_cpus_1.inst          732                       # Total read bandwidth from this memory (bytes/s)
system.mem_ctrls1.bw_read::switch_cpus_1.data         6814                       # Total read bandwidth from this memory (bytes/s)
system.mem_ctrls1.bw_read::total               914830                       # Total read bandwidth from this memory (bytes/s)
system.mem_ctrls1.bw_inst_read::cpu.inst           56                       # Instruction read bandwidth from this memory (bytes/s)
system.mem_ctrls1.bw_inst_read::switch_cpus.inst         3942                       # Instruction read bandwidth from this memory (bytes/s)
system.mem_ctrls1.bw_inst_read::switch_cpus_1.inst          732                       # Instruction read bandwidth from this memory (bytes/s)
system.mem_ctrls1.bw_inst_read::total            4731                       # Instruction read bandwidth from this memory (bytes/s)
system.mem_ctrls1.bw_total::cpu.inst               56                       # Total bandwidth to/from this memory (bytes/s)
system.mem_ctrls1.bw_total::switch_cpus.inst         3942                       # Total bandwidth to/from this memory (bytes/s)
system.mem_ctrls1.bw_total::switch_cpus.data       903285                       # Total bandwidth to/from this memory (bytes/s)
system.mem_ctrls1.bw_total::switch_cpus_1.inst          732                       # Total bandwidth to/from this memory (bytes/s)
system.mem_ctrls1.bw_total::switch_cpus_1.data         6814                       # Total bandwidth to/from this memory (bytes/s)
system.mem_ctrls1.bw_total::total              914830                       # Total bandwidth to/from this memory (bytes/s)
system.mem_ctrls1.readReqs                      16244                       # Number of read requests accepted
system.mem_ctrls1.writeReqs                         0                       # Number of write requests accepted
system.mem_ctrls1.readBursts                    16244                       # Number of DRAM read bursts, including those serviced by the write queue
system.mem_ctrls1.writeBursts                       0                       # Number of DRAM write bursts, including those merged in the write queue
system.mem_ctrls1.bytesReadDRAM               1039616                       # Total number of bytes read from DRAM
system.mem_ctrls1.bytesReadWrQ                      0                       # Total number of bytes read from write queue
system.mem_ctrls1.bytesWritten                      0                       # Total number of bytes written to DRAM
system.mem_ctrls1.bytesReadSys                1039616                       # Total read bytes from the system interface side
system.mem_ctrls1.bytesWrittenSys                   0                       # Total written bytes from the system interface side
system.mem_ctrls1.servicedByWrQ                     0                       # Number of DRAM read bursts serviced by the write queue
system.mem_ctrls1.mergedWrBursts                    0                       # Number of DRAM write bursts merged with an existing one
system.mem_ctrls1.neitherReadNorWriteReqs            0                       # Number of requests that are neither read nor write
system.mem_ctrls1.perBankRdBursts::0              957                       # Per bank write bursts
system.mem_ctrls1.perBankRdBursts::1             1011                       # Per bank write bursts
system.mem_ctrls1.perBankRdBursts::2              960                       # Per bank write bursts
system.mem_ctrls1.perBankRdBursts::3             1006                       # Per bank write bursts
system.mem_ctrls1.perBankRdBursts::4              972                       # Per bank write bursts
system.mem_ctrls1.perBankRdBursts::5             1085                       # Per bank write bursts
system.mem_ctrls1.perBankRdBursts::6             1121                       # Per bank write bursts
system.mem_ctrls1.perBankRdBursts::7             1045                       # Per bank write bursts
system.mem_ctrls1.perBankRdBursts::8             1080                       # Per bank write bursts
system.mem_ctrls1.perBankRdBursts::9             1007                       # Per bank write bursts
system.mem_ctrls1.perBankRdBursts::10            1090                       # Per bank write bursts
system.mem_ctrls1.perBankRdBursts::11            1059                       # Per bank write bursts
system.mem_ctrls1.perBankRdBursts::12             879                       # Per bank write bursts
system.mem_ctrls1.perBankRdBursts::13             921                       # Per bank write bursts
system.mem_ctrls1.perBankRdBursts::14            1020                       # Per bank write bursts
system.mem_ctrls1.perBankRdBursts::15            1031                       # Per bank write bursts
system.mem_ctrls1.perBankWrBursts::0                0                       # Per bank write bursts
system.mem_ctrls1.perBankWrBursts::1                0                       # Per bank write bursts
system.mem_ctrls1.perBankWrBursts::2                0                       # Per bank write bursts
system.mem_ctrls1.perBankWrBursts::3                0                       # Per bank write bursts
system.mem_ctrls1.perBankWrBursts::4                0                       # Per bank write bursts
system.mem_ctrls1.perBankWrBursts::5                0                       # Per bank write bursts
system.mem_ctrls1.perBankWrBursts::6                0                       # Per bank write bursts
system.mem_ctrls1.perBankWrBursts::7                0                       # Per bank write bursts
system.mem_ctrls1.perBankWrBursts::8                0                       # Per bank write bursts
system.mem_ctrls1.perBankWrBursts::9                0                       # Per bank write bursts
system.mem_ctrls1.perBankWrBursts::10               0                       # Per bank write bursts
system.mem_ctrls1.perBankWrBursts::11               0                       # Per bank write bursts
system.mem_ctrls1.perBankWrBursts::12               0                       # Per bank write bursts
system.mem_ctrls1.perBankWrBursts::13               0                       # Per bank write bursts
system.mem_ctrls1.perBankWrBursts::14               0                       # Per bank write bursts
system.mem_ctrls1.perBankWrBursts::15               0                       # Per bank write bursts
system.mem_ctrls1.numRdRetry                        0                       # Number of times read queue was full causing retry
system.mem_ctrls1.numWrRetry                        0                       # Number of times write queue was full causing retry
system.mem_ctrls1.totGap                 1122265016262                       # Total gap between requests
system.mem_ctrls1.readPktSize::0                    0                       # Read request sizes (log2)
system.mem_ctrls1.readPktSize::1                    0                       # Read request sizes (log2)
system.mem_ctrls1.readPktSize::2                    0                       # Read request sizes (log2)
system.mem_ctrls1.readPktSize::3                    0                       # Read request sizes (log2)
system.mem_ctrls1.readPktSize::4                    0                       # Read request sizes (log2)
system.mem_ctrls1.readPktSize::5                    0                       # Read request sizes (log2)
system.mem_ctrls1.readPktSize::6                16244                       # Read request sizes (log2)
system.mem_ctrls1.writePktSize::0                   0                       # Write request sizes (log2)
system.mem_ctrls1.writePktSize::1                   0                       # Write request sizes (log2)
system.mem_ctrls1.writePktSize::2                   0                       # Write request sizes (log2)
system.mem_ctrls1.writePktSize::3                   0                       # Write request sizes (log2)
system.mem_ctrls1.writePktSize::4                   0                       # Write request sizes (log2)
system.mem_ctrls1.writePktSize::5                   0                       # Write request sizes (log2)
system.mem_ctrls1.writePktSize::6                   0                       # Write request sizes (log2)
system.mem_ctrls1.rdQLenPdf::0                  16229                       # What read queue length does an incoming req see
system.mem_ctrls1.rdQLenPdf::1                     13                       # What read queue length does an incoming req see
system.mem_ctrls1.rdQLenPdf::2                      1                       # What read queue length does an incoming req see
system.mem_ctrls1.rdQLenPdf::3                      1                       # What read queue length does an incoming req see
system.mem_ctrls1.rdQLenPdf::4                      0                       # What read queue length does an incoming req see
system.mem_ctrls1.rdQLenPdf::5                      0                       # What read queue length does an incoming req see
system.mem_ctrls1.rdQLenPdf::6                      0                       # What read queue length does an incoming req see
system.mem_ctrls1.rdQLenPdf::7                      0                       # What read queue length does an incoming req see
system.mem_ctrls1.rdQLenPdf::8                      0                       # What read queue length does an incoming req see
system.mem_ctrls1.rdQLenPdf::9                      0                       # What read queue length does an incoming req see
system.mem_ctrls1.rdQLenPdf::10                     0                       # What read queue length does an incoming req see
system.mem_ctrls1.rdQLenPdf::11                     0                       # What read queue length does an incoming req see
system.mem_ctrls1.rdQLenPdf::12                     0                       # What read queue length does an incoming req see
system.mem_ctrls1.rdQLenPdf::13                     0                       # What read queue length does an incoming req see
system.mem_ctrls1.rdQLenPdf::14                     0                       # What read queue length does an incoming req see
system.mem_ctrls1.rdQLenPdf::15                     0                       # What read queue length does an incoming req see
system.mem_ctrls1.rdQLenPdf::16                     0                       # What read queue length does an incoming req see
system.mem_ctrls1.rdQLenPdf::17                     0                       # What read queue length does an incoming req see
system.mem_ctrls1.rdQLenPdf::18                     0                       # What read queue length does an incoming req see
system.mem_ctrls1.rdQLenPdf::19                     0                       # What read queue length does an incoming req see
system.mem_ctrls1.rdQLenPdf::20                     0                       # What read queue length does an incoming req see
system.mem_ctrls1.rdQLenPdf::21                     0                       # What read queue length does an incoming req see
system.mem_ctrls1.rdQLenPdf::22                     0                       # What read queue length does an incoming req see
system.mem_ctrls1.rdQLenPdf::23                     0                       # What read queue length does an incoming req see
system.mem_ctrls1.rdQLenPdf::24                     0                       # What read queue length does an incoming req see
system.mem_ctrls1.rdQLenPdf::25                     0                       # What read queue length does an incoming req see
system.mem_ctrls1.rdQLenPdf::26                     0                       # What read queue length does an incoming req see
system.mem_ctrls1.rdQLenPdf::27                     0                       # What read queue length does an incoming req see
system.mem_ctrls1.rdQLenPdf::28                     0                       # What read queue length does an incoming req see
system.mem_ctrls1.rdQLenPdf::29                     0                       # What read queue length does an incoming req see
system.mem_ctrls1.rdQLenPdf::30                     0                       # What read queue length does an incoming req see
system.mem_ctrls1.rdQLenPdf::31                     0                       # What read queue length does an incoming req see
system.mem_ctrls1.wrQLenPdf::0                      0                       # What write queue length does an incoming req see
system.mem_ctrls1.wrQLenPdf::1                      0                       # What write queue length does an incoming req see
system.mem_ctrls1.wrQLenPdf::2                      0                       # What write queue length does an incoming req see
system.mem_ctrls1.wrQLenPdf::3                      0                       # What write queue length does an incoming req see
system.mem_ctrls1.wrQLenPdf::4                      0                       # What write queue length does an incoming req see
system.mem_ctrls1.wrQLenPdf::5                      0                       # What write queue length does an incoming req see
system.mem_ctrls1.wrQLenPdf::6                      0                       # What write queue length does an incoming req see
system.mem_ctrls1.wrQLenPdf::7                      0                       # What write queue length does an incoming req see
system.mem_ctrls1.wrQLenPdf::8                      0                       # What write queue length does an incoming req see
system.mem_ctrls1.wrQLenPdf::9                      0                       # What write queue length does an incoming req see
system.mem_ctrls1.wrQLenPdf::10                     0                       # What write queue length does an incoming req see
system.mem_ctrls1.wrQLenPdf::11                     0                       # What write queue length does an incoming req see
system.mem_ctrls1.wrQLenPdf::12                     0                       # What write queue length does an incoming req see
system.mem_ctrls1.wrQLenPdf::13                     0                       # What write queue length does an incoming req see
system.mem_ctrls1.wrQLenPdf::14                     0                       # What write queue length does an incoming req see
system.mem_ctrls1.wrQLenPdf::15                     0                       # What write queue length does an incoming req see
system.mem_ctrls1.wrQLenPdf::16                     0                       # What write queue length does an incoming req see
system.mem_ctrls1.wrQLenPdf::17                     0                       # What write queue length does an incoming req see
system.mem_ctrls1.wrQLenPdf::18                     0                       # What write queue length does an incoming req see
system.mem_ctrls1.wrQLenPdf::19                     0                       # What write queue length does an incoming req see
system.mem_ctrls1.wrQLenPdf::20                     0                       # What write queue length does an incoming req see
system.mem_ctrls1.wrQLenPdf::21                     0                       # What write queue length does an incoming req see
system.mem_ctrls1.wrQLenPdf::22                     0                       # What write queue length does an incoming req see
system.mem_ctrls1.wrQLenPdf::23                     0                       # What write queue length does an incoming req see
system.mem_ctrls1.wrQLenPdf::24                     0                       # What write queue length does an incoming req see
system.mem_ctrls1.wrQLenPdf::25                     0                       # What write queue length does an incoming req see
system.mem_ctrls1.wrQLenPdf::26                     0                       # What write queue length does an incoming req see
system.mem_ctrls1.wrQLenPdf::27                     0                       # What write queue length does an incoming req see
system.mem_ctrls1.wrQLenPdf::28                     0                       # What write queue length does an incoming req see
system.mem_ctrls1.wrQLenPdf::29                     0                       # What write queue length does an incoming req see
system.mem_ctrls1.wrQLenPdf::30                     0                       # What write queue length does an incoming req see
system.mem_ctrls1.wrQLenPdf::31                     0                       # What write queue length does an incoming req see
system.mem_ctrls1.wrQLenPdf::32                     0                       # What write queue length does an incoming req see
system.mem_ctrls1.wrQLenPdf::33                     0                       # What write queue length does an incoming req see
system.mem_ctrls1.wrQLenPdf::34                     0                       # What write queue length does an incoming req see
system.mem_ctrls1.wrQLenPdf::35                     0                       # What write queue length does an incoming req see
system.mem_ctrls1.wrQLenPdf::36                     0                       # What write queue length does an incoming req see
system.mem_ctrls1.wrQLenPdf::37                     0                       # What write queue length does an incoming req see
system.mem_ctrls1.wrQLenPdf::38                     0                       # What write queue length does an incoming req see
system.mem_ctrls1.wrQLenPdf::39                     0                       # What write queue length does an incoming req see
system.mem_ctrls1.wrQLenPdf::40                     0                       # What write queue length does an incoming req see
system.mem_ctrls1.wrQLenPdf::41                     0                       # What write queue length does an incoming req see
system.mem_ctrls1.wrQLenPdf::42                     0                       # What write queue length does an incoming req see
system.mem_ctrls1.wrQLenPdf::43                     0                       # What write queue length does an incoming req see
system.mem_ctrls1.wrQLenPdf::44                     0                       # What write queue length does an incoming req see
system.mem_ctrls1.wrQLenPdf::45                     0                       # What write queue length does an incoming req see
system.mem_ctrls1.wrQLenPdf::46                     0                       # What write queue length does an incoming req see
system.mem_ctrls1.wrQLenPdf::47                     0                       # What write queue length does an incoming req see
system.mem_ctrls1.wrQLenPdf::48                     0                       # What write queue length does an incoming req see
system.mem_ctrls1.wrQLenPdf::49                     0                       # What write queue length does an incoming req see
system.mem_ctrls1.wrQLenPdf::50                     0                       # What write queue length does an incoming req see
system.mem_ctrls1.wrQLenPdf::51                     0                       # What write queue length does an incoming req see
system.mem_ctrls1.wrQLenPdf::52                     0                       # What write queue length does an incoming req see
system.mem_ctrls1.wrQLenPdf::53                     0                       # What write queue length does an incoming req see
system.mem_ctrls1.wrQLenPdf::54                     0                       # What write queue length does an incoming req see
system.mem_ctrls1.wrQLenPdf::55                     0                       # What write queue length does an incoming req see
system.mem_ctrls1.wrQLenPdf::56                     0                       # What write queue length does an incoming req see
system.mem_ctrls1.wrQLenPdf::57                     0                       # What write queue length does an incoming req see
system.mem_ctrls1.wrQLenPdf::58                     0                       # What write queue length does an incoming req see
system.mem_ctrls1.wrQLenPdf::59                     0                       # What write queue length does an incoming req see
system.mem_ctrls1.wrQLenPdf::60                     0                       # What write queue length does an incoming req see
system.mem_ctrls1.wrQLenPdf::61                     0                       # What write queue length does an incoming req see
system.mem_ctrls1.wrQLenPdf::62                     0                       # What write queue length does an incoming req see
system.mem_ctrls1.wrQLenPdf::63                     0                       # What write queue length does an incoming req see
system.mem_ctrls1.bytesPerActivate::samples        10271                       # Bytes accessed per row activation
system.mem_ctrls1.bytesPerActivate::mean   101.218577                       # Bytes accessed per row activation
system.mem_ctrls1.bytesPerActivate::gmean    87.854495                       # Bytes accessed per row activation
system.mem_ctrls1.bytesPerActivate::stdev    72.148001                       # Bytes accessed per row activation
system.mem_ctrls1.bytesPerActivate::0-127         6681     65.05%     65.05% # Bytes accessed per row activation
system.mem_ctrls1.bytesPerActivate::128-255         3141     30.58%     95.63% # Bytes accessed per row activation
system.mem_ctrls1.bytesPerActivate::256-383          300      2.92%     98.55% # Bytes accessed per row activation
system.mem_ctrls1.bytesPerActivate::384-511           91      0.89%     99.44% # Bytes accessed per row activation
system.mem_ctrls1.bytesPerActivate::512-639           38      0.37%     99.81% # Bytes accessed per row activation
system.mem_ctrls1.bytesPerActivate::640-767            9      0.09%     99.89% # Bytes accessed per row activation
system.mem_ctrls1.bytesPerActivate::768-895            2      0.02%     99.91% # Bytes accessed per row activation
system.mem_ctrls1.bytesPerActivate::896-1023            4      0.04%     99.95% # Bytes accessed per row activation
system.mem_ctrls1.bytesPerActivate::1024-1151            5      0.05%    100.00% # Bytes accessed per row activation
system.mem_ctrls1.bytesPerActivate::total        10271                       # Bytes accessed per row activation
system.mem_ctrls1.totQLat                  2658087777                       # Total ticks spent queuing
system.mem_ctrls1.totMemAccLat             2962662777                       # Total ticks spent from burst creation until serviced by the DRAM
system.mem_ctrls1.totBusLat                  81220000                       # Total ticks spent in databus transfers
system.mem_ctrls1.avgQLat                   163635.05                       # Average queueing delay per DRAM burst
system.mem_ctrls1.avgBusLat                   5000.00                       # Average bus latency per DRAM burst
system.mem_ctrls1.avgMemAccLat              182385.05                       # Average memory access latency per DRAM burst
system.mem_ctrls1.avgRdBW                        0.91                       # Average DRAM read bandwidth in MiByte/s
system.mem_ctrls1.avgWrBW                        0.00                       # Average achieved write bandwidth in MiByte/s
system.mem_ctrls1.avgRdBWSys                     0.91                       # Average system read bandwidth in MiByte/s
system.mem_ctrls1.avgWrBWSys                     0.00                       # Average system write bandwidth in MiByte/s
system.mem_ctrls1.peakBW                     12800.00                       # Theoretical peak bandwidth in MiByte/s
system.mem_ctrls1.busUtil                        0.01                       # Data bus utilization in percentage
system.mem_ctrls1.busUtilRead                    0.01                       # Data bus utilization in percentage for reads
system.mem_ctrls1.busUtilWrite                   0.00                       # Data bus utilization in percentage for writes
system.mem_ctrls1.avgRdQLen                      1.00                       # Average read queue length when enqueuing
system.mem_ctrls1.avgWrQLen                      0.00                       # Average write queue length when enqueuing
system.mem_ctrls1.readRowHits                    5973                       # Number of row buffer hits during reads
system.mem_ctrls1.writeRowHits                      0                       # Number of row buffer hits during writes
system.mem_ctrls1.readRowHitRate                36.77                       # Row buffer hit rate for reads
system.mem_ctrls1.writeRowHitRate                 nan                       # Row buffer hit rate for writes
system.mem_ctrls1.avgGap                  69087971.94                       # Average gap between requests
system.mem_ctrls1.pageHitRate                   36.77                       # Row buffer hit rate, read and write combined
system.mem_ctrls1_0.actEnergy                36892380                       # Energy for activate commands per rank (pJ)
system.mem_ctrls1_0.preEnergy                19608765                       # Energy for precharge commands per rank (pJ)
system.mem_ctrls1_0.readEnergy               58240980                       # Energy for read commands per rank (pJ)
system.mem_ctrls1_0.writeEnergy                     0                       # Energy for write commands per rank (pJ)
system.mem_ctrls1_0.refreshEnergy        5225054640.000001                       # Energy for refresh commands per rank (pJ)
system.mem_ctrls1_0.actBackEnergy          1079501340                       # Energy for active background per rank (pJ)
system.mem_ctrls1_0.preBackEnergy           316029120                       # Energy for precharge background per rank (pJ)
system.mem_ctrls1_0.actPowerDownEnergy    11649246180                       # Energy for active power-down per rank (pJ)
system.mem_ctrls1_0.prePowerDownEnergy     7964138400                       # Energy for precharge power-down per rank (pJ)
system.mem_ctrls1_0.selfRefreshEnergy    262135737075                       # Energy for self refresh per rank (pJ)
system.mem_ctrls1_0.totalEnergy          288485582580                       # Total energy per rank (pJ)
system.mem_ctrls1_0.averagePower           253.858415                       # Core power per rank (mW)
system.mem_ctrls1_0.totalIdleTime        1119088569040                       # Total Idle time Per DRAM Rank
system.mem_ctrls1_0.memoryStateTime::IDLE    639783319                       # Time in different power states
system.mem_ctrls1_0.memoryStateTime::REF   2224216000                       # Time in different power states
system.mem_ctrls1_0.memoryStateTime::SREF 1086924113661                       # Time in different power states
system.mem_ctrls1_0.memoryStateTime::PRE_PDN  20739993054                       # Time in different power states
system.mem_ctrls1_0.memoryStateTime::ACT    328730562                       # Time in different power states
system.mem_ctrls1_0.memoryStateTime::ACT_PDN  25546628065                       # Time in different power states
system.mem_ctrls1_1.actEnergy                36442560                       # Energy for activate commands per rank (pJ)
system.mem_ctrls1_1.preEnergy                19369680                       # Energy for precharge commands per rank (pJ)
system.mem_ctrls1_1.readEnergy               57741180                       # Energy for read commands per rank (pJ)
system.mem_ctrls1_1.writeEnergy                     0                       # Energy for write commands per rank (pJ)
system.mem_ctrls1_1.refreshEnergy        4950925200.000001                       # Energy for refresh commands per rank (pJ)
system.mem_ctrls1_1.actBackEnergy          1028841450                       # Energy for active background per rank (pJ)
system.mem_ctrls1_1.preBackEnergy           302831520                       # Energy for precharge background per rank (pJ)
system.mem_ctrls1_1.actPowerDownEnergy    10943964090                       # Energy for active power-down per rank (pJ)
system.mem_ctrls1_1.prePowerDownEnergy     7594898400                       # Energy for precharge power-down per rank (pJ)
system.mem_ctrls1_1.selfRefreshEnergy    262710280065                       # Energy for self refresh per rank (pJ)
system.mem_ctrls1_1.totalEnergy          287646541245                       # Total energy per rank (pJ)
system.mem_ctrls1_1.averagePower           253.120085                       # Core power per rank (mW)
system.mem_ctrls1_1.totalIdleTime        1114916655793                       # Total Idle time Per DRAM Rank
system.mem_ctrls1_1.memoryStateTime::IDLE    615960154                       # Time in different power states
system.mem_ctrls1_1.memoryStateTime::REF   2107560000                       # Time in different power states
system.mem_ctrls1_1.memoryStateTime::SREF 1089577502911                       # Time in different power states
system.mem_ctrls1_1.memoryStateTime::PRE_PDN  19778282484                       # Time in different power states
system.mem_ctrls1_1.memoryStateTime::ACT    324313438                       # Time in different power states
system.mem_ctrls1_1.memoryStateTime::ACT_PDN  23999845674                       # Time in different power states
system.pwrStateResidencyTicks::UNDEFINED 110897537672448                       # Cumulative time (in ticks) in various power states
system.cpu.branchPred.lookups                       3                       # Number of BP lookups
system.cpu.branchPred.condPredicted                 3                       # Number of conditional branches predicted
system.cpu.branchPred.condIncorrect                 1                       # Number of conditional branches incorrect
system.cpu.branchPred.BTBLookups                    0                       # Number of BTB lookups
system.cpu.branchPred.BTBHits                       0                       # Number of BTB hits
system.cpu.branchPred.BTBCorrect                    0                       # Number of correct BTB predictions (this stat may not work properly.
system.cpu.branchPred.BTBHitPct                   nan                       # BTB Hit Percentage
system.cpu.branchPred.usedRAS                       0                       # Number of times the RAS was used to get a target.
system.cpu.branchPred.RASInCorrect                  0                       # Number of incorrect RAS predictions.
system.cpu.branchPred.indirectLookups               0                       # Number of indirect predictor lookups.
system.cpu.branchPred.indirectHits                  0                       # Number of indirect target hits.
system.cpu.branchPred.indirectMisses                0                       # Number of indirect misses.
system.cpu.branchPredindirectMispredicted            0                       # Number of mispredicted indirect branches.
system.cpu_voltage_domain.voltage                   1                       # Voltage in Volts
system.cpu_clk_domain.clock                       333                       # Clock period in ticks
system.cpu.dtb.fetch_hits                           0                       # ITB hits
system.cpu.dtb.fetch_misses                         0                       # ITB misses
system.cpu.dtb.fetch_acv                            0                       # ITB acv
system.cpu.dtb.fetch_accesses                       0                       # ITB accesses
system.cpu.dtb.read_hits                            0                       # DTB read hits
system.cpu.dtb.read_misses                          0                       # DTB read misses
system.cpu.dtb.read_acv                             0                       # DTB read access violations
system.cpu.dtb.read_accesses                        0                       # DTB read accesses
system.cpu.dtb.write_hits                           0                       # DTB write hits
system.cpu.dtb.write_misses                         0                       # DTB write misses
system.cpu.dtb.write_acv                            0                       # DTB write access violations
system.cpu.dtb.write_accesses                       0                       # DTB write accesses
system.cpu.dtb.data_hits                            0                       # DTB hits
system.cpu.dtb.data_misses                          0                       # DTB misses
system.cpu.dtb.data_acv                             0                       # DTB access violations
system.cpu.dtb.data_accesses                        0                       # DTB accesses
system.cpu.itb.fetch_hits                           5                       # ITB hits
system.cpu.itb.fetch_misses                         0                       # ITB misses
system.cpu.itb.fetch_acv                            0                       # ITB acv
system.cpu.itb.fetch_accesses                       5                       # ITB accesses
system.cpu.itb.read_hits                            0                       # DTB read hits
system.cpu.itb.read_misses                          0                       # DTB read misses
system.cpu.itb.read_acv                             0                       # DTB read access violations
system.cpu.itb.read_accesses                        0                       # DTB read accesses
system.cpu.itb.write_hits                           0                       # DTB write hits
system.cpu.itb.write_misses                         0                       # DTB write misses
system.cpu.itb.write_acv                            0                       # DTB write access violations
system.cpu.itb.write_accesses                       0                       # DTB write accesses
system.cpu.itb.data_hits                            0                       # DTB hits
system.cpu.itb.data_misses                          0                       # DTB misses
system.cpu.itb.data_acv                             0                       # DTB access violations
system.cpu.itb.data_accesses                        0                       # DTB accesses
system.cpu.workload.num_syscalls                    0                       # Number of system calls
system.cpu.pwrStateResidencyTicks::ON    1136403464661                       # Cumulative time (in ticks) in various power states
system.cpu.numCycles                              501                       # number of cpu cycles simulated
system.cpu.numWorkItemsStarted                      0                       # number of work items this cpu started
system.cpu.numWorkItemsCompleted                    0                       # number of work items this cpu completed
system.cpu.fetch.icacheStallCycles                 27                       # Number of cycles fetch is stalled on an Icache miss
system.cpu.fetch.Insts                             14                       # Number of instructions fetch has processed
system.cpu.fetch.Branches                           3                       # Number of branches that fetch encountered
system.cpu.fetch.Cycles                             3                       # Number of cycles fetch has run and was not squashing or blocked
system.cpu.fetch.SquashCycles                       5                       # Number of cycles fetch has spent squashing
system.cpu.fetch.PendingDrainCycles                 3                       # Number of cycles fetch has spent waiting on pipes to drain
system.cpu.fetch.CacheLines                         5                       # Number of cache lines fetched
system.cpu.fetch.IcacheSquashes                     3                       # Number of outstanding Icache misses that were squashed
system.cpu.fetch.rateDist::samples                 35                       # Number of instructions fetched each cycle (Total)
system.cpu.fetch.rateDist::mean              0.400000                       # Number of instructions fetched each cycle (Total)
system.cpu.fetch.rateDist::stdev             1.575548                       # Number of instructions fetched each cycle (Total)
system.cpu.fetch.rateDist::underflows               0      0.00%      0.00% # Number of instructions fetched each cycle (Total)
system.cpu.fetch.rateDist::0                       32     91.43%     91.43% # Number of instructions fetched each cycle (Total)
system.cpu.fetch.rateDist::1                        1      2.86%     94.29% # Number of instructions fetched each cycle (Total)
system.cpu.fetch.rateDist::2                        0      0.00%     94.29% # Number of instructions fetched each cycle (Total)
system.cpu.fetch.rateDist::3                        0      0.00%     94.29% # Number of instructions fetched each cycle (Total)
system.cpu.fetch.rateDist::4                        0      0.00%     94.29% # Number of instructions fetched each cycle (Total)
system.cpu.fetch.rateDist::5                        1      2.86%     97.14% # Number of instructions fetched each cycle (Total)
system.cpu.fetch.rateDist::6                        0      0.00%     97.14% # Number of instructions fetched each cycle (Total)
system.cpu.fetch.rateDist::7                        0      0.00%     97.14% # Number of instructions fetched each cycle (Total)
system.cpu.fetch.rateDist::8                        1      2.86%    100.00% # Number of instructions fetched each cycle (Total)
system.cpu.fetch.rateDist::overflows                0      0.00%    100.00% # Number of instructions fetched each cycle (Total)
system.cpu.fetch.rateDist::min_value                0                       # Number of instructions fetched each cycle (Total)
system.cpu.fetch.rateDist::max_value                8                       # Number of instructions fetched each cycle (Total)
system.cpu.fetch.rateDist::total                   35                       # Number of instructions fetched each cycle (Total)
system.cpu.fetch.branchRate                  0.005988                       # Number of branch fetches per cycle
system.cpu.fetch.rate                        0.027944                       # Number of inst fetches per cycle
system.cpu.decode.IdleCycles                       29                       # Number of cycles decode is idle
system.cpu.decode.RunCycles                         3                       # Number of cycles decode is running
system.cpu.decode.SquashCycles                      3                       # Number of cycles decode is squashing
system.cpu.decode.DecodedInsts                     14                       # Number of instructions handled by decode
system.cpu.rename.SquashCycles                      3                       # Number of cycles rename is squashing
system.cpu.rename.IdleCycles                       29                       # Number of cycles rename is idle
system.cpu.rename.serializeStallCycles              0                       # count of cycles rename stalled for serializing inst
system.cpu.rename.RunCycles                         3                       # Number of cycles rename is running
system.cpu.rename.RenamedInsts                     14                       # Number of instructions processed by rename
system.cpu.rename.RenamedOperands                  11                       # Number of destination operands rename has renamed
system.cpu.rename.RenameLookups                    22                       # Number of register rename lookups that rename has made
system.cpu.rename.int_rename_lookups               22                       # Number of integer rename lookups
system.cpu.rename.CommittedMaps                     4                       # Number of HB maps that are committed
system.cpu.rename.UndoneMaps                        7                       # Number of HB maps that are undone due to squashing
system.cpu.rename.serializingInsts                  0                       # count of serializing insts renamed
system.cpu.rename.tempSerializingInsts              0                       # count of temporary serializing insts renamed
system.cpu.rename.skidInsts                         0                       # count of insts added to the skid buffer
system.cpu.memDep0.insertedLoads                    0                       # Number of loads inserted to the mem dependence unit.
system.cpu.memDep0.insertedStores                   0                       # Number of stores inserted to the mem dependence unit.
system.cpu.memDep0.conflictingLoads                 0                       # Number of conflicting loads.
system.cpu.memDep0.conflictingStores                0                       # Number of conflicting stores.
system.cpu.iq.iqInstsAdded                         14                       # Number of instructions added to the IQ (excludes non-spec)
system.cpu.iq.iqInstsIssued                        14                       # Number of instructions issued
system.cpu.iq.iqSquashedInstsExamined               9                       # Number of squashed instructions iterated over during squash; mainly for profiling
system.cpu.iq.issued_per_cycle::samples            35                       # Number of insts issued each cycle
system.cpu.iq.issued_per_cycle::mean         0.400000                       # Number of insts issued each cycle
system.cpu.iq.issued_per_cycle::stdev        0.735647                       # Number of insts issued each cycle
system.cpu.iq.issued_per_cycle::underflows            0      0.00%      0.00% # Number of insts issued each cycle
system.cpu.iq.issued_per_cycle::0                  26     74.29%     74.29% # Number of insts issued each cycle
system.cpu.iq.issued_per_cycle::1                   4     11.43%     85.71% # Number of insts issued each cycle
system.cpu.iq.issued_per_cycle::2                   5     14.29%    100.00% # Number of insts issued each cycle
system.cpu.iq.issued_per_cycle::3                   0      0.00%    100.00% # Number of insts issued each cycle
system.cpu.iq.issued_per_cycle::4                   0      0.00%    100.00% # Number of insts issued each cycle
system.cpu.iq.issued_per_cycle::5                   0      0.00%    100.00% # Number of insts issued each cycle
system.cpu.iq.issued_per_cycle::6                   0      0.00%    100.00% # Number of insts issued each cycle
system.cpu.iq.issued_per_cycle::7                   0      0.00%    100.00% # Number of insts issued each cycle
system.cpu.iq.issued_per_cycle::8                   0      0.00%    100.00% # Number of insts issued each cycle
system.cpu.iq.issued_per_cycle::overflows            0      0.00%    100.00% # Number of insts issued each cycle
system.cpu.iq.issued_per_cycle::min_value            0                       # Number of insts issued each cycle
system.cpu.iq.issued_per_cycle::max_value            2                       # Number of insts issued each cycle
system.cpu.iq.issued_per_cycle::total              35                       # Number of insts issued each cycle
system.cpu.iq.fu_full::No_OpClass                   0                       # attempts to use FU when none available
system.cpu.iq.fu_full::IntAlu                       0                       # attempts to use FU when none available
system.cpu.iq.fu_full::IntMult                      0                       # attempts to use FU when none available
system.cpu.iq.fu_full::IntDiv                       0                       # attempts to use FU when none available
system.cpu.iq.fu_full::FloatAdd                     0                       # attempts to use FU when none available
system.cpu.iq.fu_full::FloatCmp                     0                       # attempts to use FU when none available
system.cpu.iq.fu_full::FloatCvt                     0                       # attempts to use FU when none available
system.cpu.iq.fu_full::FloatMult                    0                       # attempts to use FU when none available
system.cpu.iq.fu_full::FloatMultAcc                 0                       # attempts to use FU when none available
system.cpu.iq.fu_full::FloatDiv                     0                       # attempts to use FU when none available
system.cpu.iq.fu_full::FloatMisc                    0                       # attempts to use FU when none available
system.cpu.iq.fu_full::FloatSqrt                    0                       # attempts to use FU when none available
system.cpu.iq.fu_full::SimdAdd                      0                       # attempts to use FU when none available
system.cpu.iq.fu_full::SimdAddAcc                   0                       # attempts to use FU when none available
[...]
system.switch_cpus_1.iq.int_inst_queue_wakeup_accesses    232196333                       # Number of integer instruction queue wakeup accesses
system.switch_cpus_1.iq.fp_inst_queue_reads          482                       # Number of floating instruction queue reads
system.switch_cpus_1.iq.fp_inst_queue_writes          412                       # Number of floating instruction queue writes
system.switch_cpus_1.iq.fp_inst_queue_wakeup_accesses          228                       # Number of floating instruction queue wakeup accesses
system.switch_cpus_1.iq.int_alu_accesses    244322269                       # Number of integer alu accesses
system.switch_cpus_1.iq.fp_alu_accesses           242                       # Number of floating point alu accesses
system.switch_cpus_1.iew.lsq.thread0.forwLoads     22234420                       # Number of loads that had data forwarded from stores
system.switch_cpus_1.iew.lsq.thread0.invAddrLoads            0                       # Number of loads ignored due to an invalid address
system.switch_cpus_1.iew.lsq.thread0.squashedLoads     14705829                       # Number of loads squashed
system.switch_cpus_1.iew.lsq.thread0.ignoredResponses       120848                       # Number of memory responses ignored because the instruction is squashed
system.switch_cpus_1.iew.lsq.thread0.memOrderViolation         3799                       # Number of memory ordering violations
system.switch_cpus_1.iew.lsq.thread0.squashedStores      6973449                       # Number of stores squashed
system.switch_cpus_1.iew.lsq.thread0.invAddrSwpfs            0                       # Number of software prefetches ignored due to an invalid address
system.switch_cpus_1.iew.lsq.thread0.blockedLoads            0                       # Number of blocked loads due to partial load-store forwarding
system.switch_cpus_1.iew.lsq.thread0.rescheduledLoads            0                       # Number of loads that were rescheduled
system.switch_cpus_1.iew.lsq.thread0.cacheBlocked        21308                       # Number of times an access to memory failed due to the cache being blocked
system.switch_cpus_1.iew.iewIdleCycles              0                       # Number of cycles IEW is idle
system.switch_cpus_1.iew.iewSquashCycles      1070369                       # Number of cycles IEW is squashing
system.switch_cpus_1.iew.iewBlockCycles       7991593                       # Number of cycles IEW is blocking
system.switch_cpus_1.iew.iewUnblockCycles     21441880                       # Number of cycles IEW is unblocking
system.switch_cpus_1.iew.iewDispatchedInsts    251841052                       # Number of instructions dispatched to IQ
system.switch_cpus_1.iew.iewDispSquashedInsts        98278                       # Number of squashed instructions skipped by dispatch
system.switch_cpus_1.iew.iewDispLoadInsts     73778008                       # Number of dispatched load instructions
system.switch_cpus_1.iew.iewDispStoreInsts     34511871                       # Number of dispatched store instructions
system.switch_cpus_1.iew.iewDispNonSpecInsts           44                       # Number of dispatched non-speculative instructions
system.switch_cpus_1.iew.iewIQFullEvents        55399                       # Number of times the IQ has become full, causing a stall
system.switch_cpus_1.iew.iewLSQFullEvents     21398798                       # Number of times the LSQ has become full, causing a stall
system.switch_cpus_1.iew.memOrderViolationEvents         3799                       # Number of memory order violations
system.switch_cpus_1.iew.predictedTakenIncorrect       599098                       # Number of branches that were predicted taken incorrectly
system.switch_cpus_1.iew.predictedNotTakenIncorrect       427321                       # Number of branches that were predicted not taken incorrectly
system.switch_cpus_1.iew.branchMispredicts      1026419                       # Number of branch mispredicts detected at execute
system.switch_cpus_1.iew.iewExecutedInsts    234225635                       # Number of executed instructions
system.switch_cpus_1.iew.iewExecLoadInsts     69875239                       # Number of load instructions executed
system.switch_cpus_1.iew.iewExecSquashedInsts      2402871                       # Number of squashed instructions skipped in execute
system.switch_cpus_1.iew.exec_swp                   0                       # number of swp insts executed
system.switch_cpus_1.iew.exec_nop             1350830                       # number of nop insts executed
system.switch_cpus_1.iew.exec_refs          102738382                       # number of memory reference insts executed
system.switch_cpus_1.iew.exec_branches       23579529                       # Number of branches executed
system.switch_cpus_1.iew.exec_stores         32863143                       # Number of stores executed
system.switch_cpus_1.iew.exec_rate           1.801581                       # Inst execution rate
system.switch_cpus_1.iew.wb_sent            233010832                       # cumulative count of insts sent to commit
system.switch_cpus_1.iew.wb_count           232196561                       # cumulative count of insts written-back
system.switch_cpus_1.iew.wb_producers       132133068                       # num instructions producing a value
system.switch_cpus_1.iew.wb_consumers       183135481                       # num instructions consuming a value
system.switch_cpus_1.iew.wb_rate             1.785974                       # insts written-back per cycle
system.switch_cpus_1.iew.wb_fanout           0.721504                       # average fanout of values written-back
system.switch_cpus_1.commit.commitSquashedInsts     48969552                       # The number of squashed insts skipped by commit
system.switch_cpus_1.commit.commitNonSpecStalls           40                       # The number of times commit has been forced to stall to communicate backwards
system.switch_cpus_1.commit.branchMispredicts       996129                       # The number of times a branch was mispredicted
system.switch_cpus_1.commit.committed_per_cycle::samples    123373881                       # Number of insts commited each cycle
system.switch_cpus_1.commit.committed_per_cycle::mean     1.629441                       # Number of insts commited each cycle
system.switch_cpus_1.commit.committed_per_cycle::stdev     2.841456                       # Number of insts commited each cycle
system.switch_cpus_1.commit.committed_per_cycle::underflows            0      0.00%      0.00% # Number of insts commited each cycle
system.switch_cpus_1.commit.committed_per_cycle::0     73879811     59.88%     59.88% # Number of insts commited each cycle
system.switch_cpus_1.commit.committed_per_cycle::1     22394644     18.15%     78.03% # Number of insts commited each cycle
system.switch_cpus_1.commit.committed_per_cycle::2      2196078      1.78%     79.81% # Number of insts commited each cycle
system.switch_cpus_1.commit.committed_per_cycle::3      2231890      1.81%     81.62% # Number of insts commited each cycle
system.switch_cpus_1.commit.committed_per_cycle::4      1564940      1.27%     82.89% # Number of insts commited each cycle
system.switch_cpus_1.commit.committed_per_cycle::5      1221899      0.99%     83.88% # Number of insts commited each cycle
system.switch_cpus_1.commit.committed_per_cycle::6      1338404      1.08%     84.97% # Number of insts commited each cycle
system.switch_cpus_1.commit.committed_per_cycle::7      1221383      0.99%     85.96% # Number of insts commited each cycle
system.switch_cpus_1.commit.committed_per_cycle::8     17324832     14.04%    100.00% # Number of insts commited each cycle
system.switch_cpus_1.commit.committed_per_cycle::overflows            0      0.00%    100.00% # Number of insts commited each cycle
system.switch_cpus_1.commit.committed_per_cycle::min_value            0                       # Number of insts commited each cycle
system.switch_cpus_1.commit.committed_per_cycle::max_value            8                       # Number of insts commited each cycle
system.switch_cpus_1.commit.committed_per_cycle::total    123373881                       # Number of insts commited each cycle
system.switch_cpus_1.commit.committedInsts    201030486                       # Number of instructions committed
system.switch_cpus_1.commit.committedOps    201030486                       # Number of ops (including micro ops) committed
system.switch_cpus_1.commit.swp_count               0                       # Number of s/w prefetches committed
system.switch_cpus_1.commit.refs             86610567                       # Number of memory references committed
system.switch_cpus_1.commit.loads            59072162                       # Number of loads committed
system.switch_cpus_1.commit.membars                20                       # Number of memory barriers committed
system.switch_cpus_1.commit.branches         20593420                       # Number of branches committed
system.switch_cpus_1.commit.fp_insts              192                       # Number of committed floating point instructions.
system.switch_cpus_1.commit.int_insts       199984040                       # Number of committed integer instructions.
system.switch_cpus_1.commit.function_calls      2446547                       # Number of function calls committed.
system.switch_cpus_1.commit.op_class_0::No_OpClass      1030482      0.51%      0.51% # Class of committed instruction
system.switch_cpus_1.commit.op_class_0::IntAlu    107886459     53.67%     54.18% # Class of committed instruction
system.switch_cpus_1.commit.op_class_0::IntMult      5502790      2.74%     56.92% # Class of committed instruction
system.switch_cpus_1.commit.op_class_0::IntDiv            0      0.00%     56.92% # Class of committed instruction
system.switch_cpus_1.commit.op_class_0::FloatAdd           80      0.00%     56.92% # Class of committed instruction
system.switch_cpus_1.commit.op_class_0::FloatCmp            0      0.00%     56.92% # Class of committed instruction
system.switch_cpus_1.commit.op_class_0::FloatCvt           56      0.00%     56.92% # Class of committed instruction
system.switch_cpus_1.commit.op_class_0::FloatMult           32      0.00%     56.92% # Class of committed instruction
system.switch_cpus_1.commit.op_class_0::FloatMultAcc            0      0.00%     56.92% # Class of committed instruction
system.switch_cpus_1.commit.op_class_0::FloatDiv            0      0.00%     56.92% # Class of committed instruction
system.switch_cpus_1.commit.op_class_0::FloatMisc            0      0.00%     56.92% # Class of committed instruction
system.switch_cpus_1.commit.op_class_0::FloatSqrt            0      0.00%     56.92% # Class of committed instruction
system.switch_cpus_1.commit.op_class_0::SimdAdd            0      0.00%     56.92% # Class of committed instruction
system.switch_cpus_1.commit.op_class_0::SimdAddAcc            0      0.00%     56.92% # Class of committed instruction
system.switch_cpus_1.commit.op_class_0::SimdAlu            0      0.00%     56.92% # Class of committed instruction
system.switch_cpus_1.commit.op_class_0::SimdCmp            0      0.00%     56.92% # Class of committed instruction
system.switch_cpus_1.commit.op_class_0::SimdCvt            0      0.00%     56.92% # Class of committed instruction
system.switch_cpus_1.commit.op_class_0::SimdMisc            0      0.00%     56.92% # Class of committed instruction
system.switch_cpus_1.commit.op_class_0::SimdMult            0      0.00%     56.92% # Class of committed instruction
system.switch_cpus_1.commit.op_class_0::SimdMultAcc            0      0.00%     56.92% # Class of committed instruction
system.switch_cpus_1.commit.op_class_0::SimdShift            0      0.00%     56.92% # Class of committed instruction
system.switch_cpus_1.commit.op_class_0::SimdShiftAcc            0      0.00%     56.92% # Class of committed instruction
system.switch_cpus_1.commit.op_class_0::SimdSqrt            0      0.00%     56.92% # Class of committed instruction
system.switch_cpus_1.commit.op_class_0::SimdFloatAdd            0      0.00%     56.92% # Class of committed instruction
system.switch_cpus_1.commit.op_class_0::SimdFloatAlu            0      0.00%     56.92% # Class of committed instruction
system.switch_cpus_1.commit.op_class_0::SimdFloatCmp            0      0.00%     56.92% # Class of committed instruction
system.switch_cpus_1.commit.op_class_0::SimdFloatCvt            0      0.00%     56.92% # Class of committed instruction
system.switch_cpus_1.commit.op_class_0::SimdFloatDiv            0      0.00%     56.92% # Class of committed instruction
system.switch_cpus_1.commit.op_class_0::SimdFloatMisc            0      0.00%     56.92% # Class of committed instruction
system.switch_cpus_1.commit.op_class_0::SimdFloatMult            0      0.00%     56.92% # Class of committed instruction
system.switch_cpus_1.commit.op_class_0::SimdFloatMultAcc            0      0.00%     56.92% # Class of committed instruction
system.switch_cpus_1.commit.op_class_0::SimdFloatSqrt            0      0.00%     56.92% # Class of committed instruction
system.switch_cpus_1.commit.op_class_0::MemRead     59072158     29.38%     86.30% # Class of committed instruction
system.switch_cpus_1.commit.op_class_0::MemWrite     27538405     13.70%    100.00% # Class of committed instruction
system.switch_cpus_1.commit.op_class_0::FloatMemRead           24      0.00%    100.00% # Class of committed instruction
system.switch_cpus_1.commit.op_class_0::FloatMemWrite            0      0.00%    100.00% # Class of committed instruction
system.switch_cpus_1.commit.op_class_0::IprAccess            0      0.00%    100.00% # Class of committed instruction
system.switch_cpus_1.commit.op_class_0::InstPrefetch            0      0.00%    100.00% # Class of committed instruction
system.switch_cpus_1.commit.op_class_0::total    201030486                       # Class of committed instruction
system.switch_cpus_1.commit.bw_lim_events     17324832                       # number cycles where commit BW limit reached
system.switch_cpus_1.rob.rob_reads          355129623                       # The number of ROB reads
system.switch_cpus_1.rob.rob_writes         506629102                       # The number of ROB writes
system.switch_cpus_1.timesIdled                    23                       # Number of times that the entire CPU went into an idle state and unscheduled itself
system.switch_cpus_1.idleCycles                 10923                       # Total number of cycles that the CPU has spent unscheduled due to idling
system.switch_cpus_1.committedInsts         200000004                       # Number of Instructions Simulated
system.switch_cpus_1.committedOps           200000004                       # Number of Ops (including micro ops) Simulated
system.switch_cpus_1.cpi                     0.650056                       # CPI: Cycles Per Instruction
system.switch_cpus_1.cpi_total               0.650056                       # CPI: Total CPI of All Threads
system.switch_cpus_1.ipc                     1.538330                       # IPC: Instructions Per Cycle
system.switch_cpus_1.ipc_total               1.538330                       # IPC: Total IPC of All Threads
system.switch_cpus_1.int_regfile_reads      341230561                       # number of integer regfile reads
system.switch_cpus_1.int_regfile_writes     179541019                       # number of integer regfile writes
system.switch_cpus_1.fp_regfile_reads             211                       # number of floating regfile reads
system.switch_cpus_1.fp_regfile_writes            242                       # number of floating regfile writes
system.switch_cpus_1.misc_regfile_reads            45                       # number of misc regfile reads
system.switch_cpus_1.misc_regfile_writes           40                       # number of misc regfile writes
system.tol3bus.snoop_filter.tot_requests      5103057                       # Total number of requests made to the snoop filter.
system.tol3bus.snoop_filter.hit_single_requests      2549402                       # Number of requests hitting in the snoop filter with a single holder of the requested data.
system.tol3bus.snoop_filter.hit_multi_requests            0                       # Number of requests hitting in the snoop filter with multiple (>1) holders of the requested data.
system.tol3bus.snoop_filter.tot_snoops              0                       # Total number of snoops made to the snoop filter.
system.tol3bus.snoop_filter.hit_single_snoops            0                       # Number of snoops hitting in the snoop filter with a single holder of the requested data.
system.tol3bus.snoop_filter.hit_multi_snoops            0                       # Number of snoops hitting in the snoop filter with multiple (>1) holders of the requested data.
system.tol3bus.pwrStateResidencyTicks::UNDEFINED 110897537672448                       # Cumulative time (in ticks) in various power states
system.tol3bus.trans_dist::ReadResp           2301822                       # Transaction distribution
system.tol3bus.trans_dist::WritebackDirty      1993198                       # Transaction distribution
system.tol3bus.trans_dist::CleanEvict          556200                       # Transaction distribution
system.tol3bus.trans_dist::UpgradeReq               4                       # Transaction distribution
system.tol3bus.trans_dist::UpgradeResp              4                       # Transaction distribution
system.tol3bus.trans_dist::ReadExReq           251833                       # Transaction distribution
system.tol3bus.trans_dist::ReadExResp          251833                       # Transaction distribution
system.tol3bus.trans_dist::ReadSharedReq      2301822                       # Transaction distribution
system.tol3bus.pkt_count_system.cpu.l2.mem_side::system.l3.cpu_side      7656716                       # Packet count per connected master and slave (bytes)
system.tol3bus.pkt_size_system.cpu.l2.mem_side::system.l3.cpu_side    290998592                       # Cumulative packet size per connected master and slave (bytes)
system.tol3bus.snoops                               0                       # Total snoops (count)
system.tol3bus.snoopTraffic                         0                       # Total snoop traffic (bytes)
system.tol3bus.snoop_fanout::samples          2553659                       # Request fanout histogram
system.tol3bus.snoop_fanout::mean                   0                       # Request fanout histogram
system.tol3bus.snoop_fanout::stdev                  0                       # Request fanout histogram
system.tol3bus.snoop_fanout::underflows             0      0.00%      0.00% # Request fanout histogram
system.tol3bus.snoop_fanout::0                2553659    100.00%    100.00% # Request fanout histogram
system.tol3bus.snoop_fanout::1                      0      0.00%    100.00% # Request fanout histogram
system.tol3bus.snoop_fanout::overflows              0      0.00%    100.00% # Request fanout histogram
system.tol3bus.snoop_fanout::min_value              0                       # Request fanout histogram
system.tol3bus.snoop_fanout::max_value              0                       # Request fanout histogram
system.tol3bus.snoop_fanout::total            2553659                       # Request fanout histogram
system.tol3bus.reqLayer0.occupancy         2363052915                       # Layer occupancy (ticks)
system.tol3bus.reqLayer0.utilization              0.2                       # Layer utilization (%)
system.tol3bus.respLayer0.occupancy        1700735562                       # Layer occupancy (ticks)
system.tol3bus.respLayer0.utilization             0.1                       # Layer utilization (%)

---------- End Simulation Statistics   ----------
