
---------- Begin Simulation Statistics ----------
sim_seconds                                  1.015064                       # Number of seconds simulated
sim_ticks                                1015064142444                       # Number of ticks simulated
final_tick                               400904033748912                       # Number of ticks from beginning of simulation (restored from checkpoints and never reset)
sim_freq                                 1000000000000                       # Frequency of simulated ticks
host_inst_rate                                 670286                       # Simulator instruction rate (inst/s)
host_op_rate                                   670286                       # Simulator op (including micro ops) rate (op/s)
host_tick_rate                              566986158                       # Simulator tick rate (ticks/s)
host_mem_usage                                2411456                       # Number of bytes of host memory used
host_seconds                                  1790.28                       # Real time elapsed on the host
sim_insts                                  1200000004                       # Number of instructions simulated
sim_ops                                    1200000004                       # Number of ops (including micro ops) simulated
system.voltage_domain.voltage                       1                       # Voltage in Volts
system.clk_domain.clock                          1000                       # Clock period in ticks
system.mem_ctrls0.pwrStateResidencyTicks::UNDEFINED 400904033748912                       # Cumulative time (in ticks) in various power states
system.mem_ctrls0.bytes_read::cpu.inst            128                       # Number of bytes read from this memory
system.mem_ctrls0.bytes_read::switch_cpus.inst        21440                       # Number of bytes read from this memory
system.mem_ctrls0.bytes_read::switch_cpus.data      8151296                       # Number of bytes read from this memory
system.mem_ctrls0.bytes_read::switch_cpus_1.inst         2688                       # Number of bytes read from this memory
system.mem_ctrls0.bytes_read::switch_cpus_1.data      1622080                       # Number of bytes read from this memory
system.mem_ctrls0.bytes_read::total           9797632                       # Number of bytes read from this memory
system.mem_ctrls0.bytes_inst_read::cpu.inst          128                       # Number of instructions bytes read from this memory
system.mem_ctrls0.bytes_inst_read::switch_cpus.inst        21440                       # Number of instructions bytes read from this memory
system.mem_ctrls0.bytes_inst_read::switch_cpus_1.inst         2688                       # Number of instructions bytes read from this memory
system.mem_ctrls0.bytes_inst_read::total        24256                       # Number of instructions bytes read from this memory
system.mem_ctrls0.bytes_written::writebacks      5867136                       # Number of bytes written to this memory
system.mem_ctrls0.bytes_written::total        5867136                       # Number of bytes written to this memory
system.mem_ctrls0.num_reads::cpu.inst               2                       # Number of read requests responded to by this memory
system.mem_ctrls0.num_reads::switch_cpus.inst          335                       # Number of read requests responded to by this memory
system.mem_ctrls0.num_reads::switch_cpus.data       127364                       # Number of read requests responded to by this memory
system.mem_ctrls0.num_reads::switch_cpus_1.inst           42                       # Number of read requests responded to by this memory
system.mem_ctrls0.num_reads::switch_cpus_1.data        25345                       # Number of read requests responded to by this memory
system.mem_ctrls0.num_reads::total             153088                       # Number of read requests responded to by this memory
system.mem_ctrls0.num_writes::writebacks        91674                       # Number of write requests responded to by this memory
system.mem_ctrls0.num_writes::total             91674                       # Number of write requests responded to by this memory
system.mem_ctrls0.bw_read::cpu.inst               126                       # Total read bandwidth from this memory (bytes/s)
system.mem_ctrls0.bw_read::switch_cpus.inst        21122                       # Total read bandwidth from this memory (bytes/s)
system.mem_ctrls0.bw_read::switch_cpus.data      8030326                       # Total read bandwidth from this memory (bytes/s)
system.mem_ctrls0.bw_read::switch_cpus_1.inst         2648                       # Total read bandwidth from this memory (bytes/s)
system.mem_ctrls0.bw_read::switch_cpus_1.data      1598007                       # Total read bandwidth from this memory (bytes/s)
system.mem_ctrls0.bw_read::total              9652229                       # Total read bandwidth from this memory (bytes/s)
system.mem_ctrls0.bw_inst_read::cpu.inst          126                       # Instruction read bandwidth from this memory (bytes/s)
system.mem_ctrls0.bw_inst_read::switch_cpus.inst        21122                       # Instruction read bandwidth from this memory (bytes/s)
system.mem_ctrls0.bw_inst_read::switch_cpus_1.inst         2648                       # Instruction read bandwidth from this memory (bytes/s)
system.mem_ctrls0.bw_inst_read::total           23896                       # Instruction read bandwidth from this memory (bytes/s)
system.mem_ctrls0.bw_write::writebacks        5780064                       # Write bandwidth from this memory (bytes/s)
system.mem_ctrls0.bw_write::total             5780064                       # Write bandwidth from this memory (bytes/s)
system.mem_ctrls0.bw_total::writebacks        5780064                       # Total bandwidth to/from this memory (bytes/s)
system.mem_ctrls0.bw_total::cpu.inst              126                       # Total bandwidth to/from this memory (bytes/s)
system.mem_ctrls0.bw_total::switch_cpus.inst        21122                       # Total bandwidth to/from this memory (bytes/s)
system.mem_ctrls0.bw_total::switch_cpus.data      8030326                       # Total bandwidth to/from this memory (bytes/s)
system.mem_ctrls0.bw_total::switch_cpus_1.inst         2648                       # Total bandwidth to/from this memory (bytes/s)
system.mem_ctrls0.bw_total::switch_cpus_1.data      1598007                       # Total bandwidth to/from this memory (bytes/s)
system.mem_ctrls0.bw_total::total            15432294                       # Total bandwidth to/from this memory (bytes/s)
system.mem_ctrls0.readReqs                     153088                       # Number of read requests accepted
system.mem_ctrls0.writeReqs                     91674                       # Number of write requests accepted
system.mem_ctrls0.readBursts                   153088                       # Number of DRAM read bursts, including those serviced by the write queue
system.mem_ctrls0.writeBursts                   91674                       # Number of DRAM write bursts, including those merged in the write queue
system.mem_ctrls0.bytesReadDRAM               9797312                       # Total number of bytes read from DRAM
system.mem_ctrls0.bytesReadWrQ                    320                       # Total number of bytes read from write queue
system.mem_ctrls0.bytesWritten                5865088                       # Total number of bytes written to DRAM
system.mem_ctrls0.bytesReadSys                9797632                       # Total read bytes from the system interface side
system.mem_ctrls0.bytesWrittenSys             5867136                       # Total written bytes from the system interface side
system.mem_ctrls0.servicedByWrQ                     5                       # Number of DRAM read bursts serviced by the write queue
system.mem_ctrls0.mergedWrBursts                    0                       # Number of DRAM write bursts merged with an existing one
system.mem_ctrls0.neitherReadNorWriteReqs            0                       # Number of requests that are neither read nor write
system.mem_ctrls0.perBankRdBursts::0             9653                       # Per bank write bursts
system.mem_ctrls0.perBankRdBursts::1             9673                       # Per bank write bursts
system.mem_ctrls0.perBankRdBursts::2             9729                       # Per bank write bursts
system.mem_ctrls0.perBankRdBursts::3             9647                       # Per bank write bursts
system.mem_ctrls0.perBankRdBursts::4             9521                       # Per bank write bursts
system.mem_ctrls0.perBankRdBursts::5             9695                       # Per bank write bursts
system.mem_ctrls0.perBankRdBursts::6             9623                       # Per bank write bursts
system.mem_ctrls0.perBankRdBursts::7             9431                       # Per bank write bursts
system.mem_ctrls0.perBankRdBursts::8             9594                       # Per bank write bursts
system.mem_ctrls0.perBankRdBursts::9             9521                       # Per bank write bursts
system.mem_ctrls0.perBankRdBursts::10            9458                       # Per bank write bursts
system.mem_ctrls0.perBankRdBursts::11            9492                       # Per bank write bursts
system.mem_ctrls0.perBankRdBursts::12            9637                       # Per bank write bursts
system.mem_ctrls0.perBankRdBursts::13            9537                       # Per bank write bursts
system.mem_ctrls0.perBankRdBursts::14            9155                       # Per bank write bursts
system.mem_ctrls0.perBankRdBursts::15            9717                       # Per bank write bursts
system.mem_ctrls0.perBankWrBursts::0             5789                       # Per bank write bursts
system.mem_ctrls0.perBankWrBursts::1             5721                       # Per bank write bursts
system.mem_ctrls0.perBankWrBursts::2             5767                       # Per bank write bursts
system.mem_ctrls0.perBankWrBursts::3             5764                       # Per bank write bursts
system.mem_ctrls0.perBankWrBursts::4             5741                       # Per bank write bursts
system.mem_ctrls0.perBankWrBursts::5             5838                       # Per bank write bursts
system.mem_ctrls0.perBankWrBursts::6             5731                       # Per bank write bursts
system.mem_ctrls0.perBankWrBursts::7             5610                       # Per bank write bursts
system.mem_ctrls0.perBankWrBursts::8             5824                       # Per bank write bursts
system.mem_ctrls0.perBankWrBursts::9             5747                       # Per bank write bursts
system.mem_ctrls0.perBankWrBursts::10            5740                       # Per bank write bursts
system.mem_ctrls0.perBankWrBursts::11            5642                       # Per bank write bursts
system.mem_ctrls0.perBankWrBursts::12            5703                       # Per bank write bursts
system.mem_ctrls0.perBankWrBursts::13            5663                       # Per bank write bursts
system.mem_ctrls0.perBankWrBursts::14            5489                       # Per bank write bursts
system.mem_ctrls0.perBankWrBursts::15            5873                       # Per bank write bursts
system.mem_ctrls0.numRdRetry                        0                       # Number of times read queue was full causing retry
system.mem_ctrls0.numWrRetry                        0                       # Number of times write queue was full causing retry
system.mem_ctrls0.totGap                 1015063757829                       # Total gap between requests
system.mem_ctrls0.readPktSize::0                    0                       # Read request sizes (log2)
system.mem_ctrls0.readPktSize::1                    0                       # Read request sizes (log2)
system.mem_ctrls0.readPktSize::2                    0                       # Read request sizes (log2)
system.mem_ctrls0.readPktSize::3                    0                       # Read request sizes (log2)
system.mem_ctrls0.readPktSize::4                    0                       # Read request sizes (log2)
system.mem_ctrls0.readPktSize::5                    0                       # Read request sizes (log2)
system.mem_ctrls0.readPktSize::6               153088                       # Read request sizes (log2)
system.mem_ctrls0.writePktSize::0                   0                       # Write request sizes (log2)
system.mem_ctrls0.writePktSize::1                   0                       # Write request sizes (log2)
system.mem_ctrls0.writePktSize::2                   0                       # Write request sizes (log2)
system.mem_ctrls0.writePktSize::3                   0                       # Write request sizes (log2)
system.mem_ctrls0.writePktSize::4                   0                       # Write request sizes (log2)
system.mem_ctrls0.writePktSize::5                   0                       # Write request sizes (log2)
system.mem_ctrls0.writePktSize::6               91674                       # Write request sizes (log2)
system.mem_ctrls0.rdQLenPdf::0                 153009                       # What read queue length does an incoming req see
system.mem_ctrls0.rdQLenPdf::1                     74                       # What read queue length does an incoming req see
system.mem_ctrls0.rdQLenPdf::2                      0                       # What read queue length does an incoming req see
system.mem_ctrls0.rdQLenPdf::3                      0                       # What read queue length does an incoming req see
system.mem_ctrls0.rdQLenPdf::4                      0                       # What read queue length does an incoming req see
system.mem_ctrls0.rdQLenPdf::5                      0                       # What read queue length does an incoming req see
system.mem_ctrls0.rdQLenPdf::6                      0                       # What read queue length does an incoming req see
system.mem_ctrls0.rdQLenPdf::7                      0                       # What read queue length does an incoming req see
system.mem_ctrls0.rdQLenPdf::8                      0                       # What read queue length does an incoming req see
system.mem_ctrls0.rdQLenPdf::9                      0                       # What read queue length does an incoming req see
system.mem_ctrls0.rdQLenPdf::10                     0                       # What read queue length does an incoming req see
system.mem_ctrls0.rdQLenPdf::11                     0                       # What read queue length does an incoming req see
system.mem_ctrls0.rdQLenPdf::12                     0                       # What read queue length does an incoming req see
system.mem_ctrls0.rdQLenPdf::13                     0                       # What read queue length does an incoming req see
system.mem_ctrls0.rdQLenPdf::14                     0                       # What read queue length does an incoming req see
system.mem_ctrls0.rdQLenPdf::15                     0                       # What read queue length does an incoming req see
system.mem_ctrls0.rdQLenPdf::16                     0                       # What read queue length does an incoming req see
system.mem_ctrls0.rdQLenPdf::17                     0                       # What read queue length does an incoming req see
system.mem_ctrls0.rdQLenPdf::18                     0                       # What read queue length does an incoming req see
system.mem_ctrls0.rdQLenPdf::19                     0                       # What read queue length does an incoming req see
system.mem_ctrls0.rdQLenPdf::20                     0                       # What read queue length does an incoming req see
system.mem_ctrls0.rdQLenPdf::21                     0                       # What read queue length does an incoming req see
system.mem_ctrls0.rdQLenPdf::22                     0                       # What read queue length does an incoming req see
system.mem_ctrls0.rdQLenPdf::23                     0                       # What read queue length does an incoming req see
system.mem_ctrls0.rdQLenPdf::24                     0                       # What read queue length does an incoming req see
system.mem_ctrls0.rdQLenPdf::25                     0                       # What read queue length does an incoming req see
system.mem_ctrls0.rdQLenPdf::26                     0                       # What read queue length does an incoming req see
system.mem_ctrls0.rdQLenPdf::27                     0                       # What read queue length does an incoming req see
system.mem_ctrls0.rdQLenPdf::28                     0                       # What read queue length does an incoming req see
system.mem_ctrls0.rdQLenPdf::29                     0                       # What read queue length does an incoming req see
system.mem_ctrls0.rdQLenPdf::30                     0                       # What read queue length does an incoming req see
system.mem_ctrls0.rdQLenPdf::31                     0                       # What read queue length does an incoming req see
system.mem_ctrls0.wrQLenPdf::0                      2                       # What write queue length does an incoming req see
system.mem_ctrls0.wrQLenPdf::1                      2                       # What write queue length does an incoming req see
system.mem_ctrls0.wrQLenPdf::2                      2                       # What write queue length does an incoming req see
system.mem_ctrls0.wrQLenPdf::3                      2                       # What write queue length does an incoming req see
system.mem_ctrls0.wrQLenPdf::4                      2                       # What write queue length does an incoming req see
system.mem_ctrls0.wrQLenPdf::5                      2                       # What write queue length does an incoming req see
system.mem_ctrls0.wrQLenPdf::6                      2                       # What write queue length does an incoming req see
system.mem_ctrls0.wrQLenPdf::7                      2                       # What write queue length does an incoming req see
system.mem_ctrls0.wrQLenPdf::8                      2                       # What write queue length does an incoming req see
system.mem_ctrls0.wrQLenPdf::9                      2                       # What write queue length does an incoming req see
system.mem_ctrls0.wrQLenPdf::10                     2                       # What write queue length does an incoming req see
system.mem_ctrls0.wrQLenPdf::11                     2                       # What write queue length does an incoming req see
system.mem_ctrls0.wrQLenPdf::12                     2                       # What write queue length does an incoming req see
system.mem_ctrls0.wrQLenPdf::13                     2                       # What write queue length does an incoming req see
system.mem_ctrls0.wrQLenPdf::14                     2                       # What write queue length does an incoming req see
system.mem_ctrls0.wrQLenPdf::15                  4343                       # What write queue length does an incoming req see
system.mem_ctrls0.wrQLenPdf::16                  4421                       # What write queue length does an incoming req see
system.mem_ctrls0.wrQLenPdf::17                  5147                       # What write queue length does an incoming req see
system.mem_ctrls0.wrQLenPdf::18                  5178                       # What write queue length does an incoming req see
system.mem_ctrls0.wrQLenPdf::19                  5175                       # What write queue length does an incoming req see
system.mem_ctrls0.wrQLenPdf::20                  5176                       # What write queue length does an incoming req see
system.mem_ctrls0.wrQLenPdf::21                  5176                       # What write queue length does an incoming req see
system.mem_ctrls0.wrQLenPdf::22                  5180                       # What write queue length does an incoming req see
system.mem_ctrls0.wrQLenPdf::23                  5180                       # What write queue length does an incoming req see
system.mem_ctrls0.wrQLenPdf::24                  5179                       # What write queue length does an incoming req see
system.mem_ctrls0.wrQLenPdf::25                  5170                       # What write queue length does an incoming req see
system.mem_ctrls0.wrQLenPdf::26                  5231                       # What write queue length does an incoming req see
system.mem_ctrls0.wrQLenPdf::27                  5213                       # What write queue length does an incoming req see
system.mem_ctrls0.wrQLenPdf::28                  5168                       # What write queue length does an incoming req see
system.mem_ctrls0.wrQLenPdf::29                  5169                       # What write queue length does an incoming req see
system.mem_ctrls0.wrQLenPdf::30                  5171                       # What write queue length does an incoming req see
system.mem_ctrls0.wrQLenPdf::31                  5167                       # What write queue length does an incoming req see
system.mem_ctrls0.wrQLenPdf::32                  5164                       # What write queue length does an incoming req see
system.mem_ctrls0.wrQLenPdf::33                    36                       # What write queue length does an incoming req see
system.mem_ctrls0.wrQLenPdf::34                     0                       # What write queue length does an incoming req see
system.mem_ctrls0.wrQLenPdf::35                     0                       # What write queue length does an incoming req see
system.mem_ctrls0.wrQLenPdf::36                     0                       # What write queue length does an incoming req see
system.mem_ctrls0.wrQLenPdf::37                     0                       # What write queue length does an incoming req see
system.mem_ctrls0.wrQLenPdf::38                     0                       # What write queue length does an incoming req see
system.mem_ctrls0.wrQLenPdf::39                     0                       # What write queue length does an incoming req see
system.mem_ctrls0.wrQLenPdf::40                     0                       # What write queue length does an incoming req see
system.mem_ctrls0.wrQLenPdf::41                     0                       # What write queue length does an incoming req see
system.mem_ctrls0.wrQLenPdf::42                     0                       # What write queue length does an incoming req see
system.mem_ctrls0.wrQLenPdf::43                     0                       # What write queue length does an incoming req see
system.mem_ctrls0.wrQLenPdf::44                     0                       # What write queue length does an incoming req see
system.mem_ctrls0.wrQLenPdf::45                     0                       # What write queue length does an incoming req see
system.mem_ctrls0.wrQLenPdf::46                     0                       # What write queue length does an incoming req see
system.mem_ctrls0.wrQLenPdf::47                     0                       # What write queue length does an incoming req see
system.mem_ctrls0.wrQLenPdf::48                     0                       # What write queue length does an incoming req see
system.mem_ctrls0.wrQLenPdf::49                     0                       # What write queue length does an incoming req see
system.mem_ctrls0.wrQLenPdf::50                     0                       # What write queue length does an incoming req see
system.mem_ctrls0.wrQLenPdf::51                     0                       # What write queue length does an incoming req see
system.mem_ctrls0.wrQLenPdf::52                     0                       # What write queue length does an incoming req see
system.mem_ctrls0.wrQLenPdf::53                     0                       # What write queue length does an incoming req see
system.mem_ctrls0.wrQLenPdf::54                     0                       # What write queue length does an incoming req see
system.mem_ctrls0.wrQLenPdf::55                     0                       # What write queue length does an incoming req see
system.mem_ctrls0.wrQLenPdf::56                     0                       # What write queue length does an incoming req see
system.mem_ctrls0.wrQLenPdf::57                     0                       # What write queue length does an incoming req see
system.mem_ctrls0.wrQLenPdf::58                     0                       # What write queue length does an incoming req see
system.mem_ctrls0.wrQLenPdf::59                     0                       # What write queue length does an incoming req see
system.mem_ctrls0.wrQLenPdf::60                     0                       # What write queue length does an incoming req see
system.mem_ctrls0.wrQLenPdf::61                     0                       # What write queue length does an incoming req see
system.mem_ctrls0.wrQLenPdf::62                     0                       # What write queue length does an incoming req see
system.mem_ctrls0.wrQLenPdf::63                     0                       # What write queue length does an incoming req see
system.mem_ctrls0.bytesPerActivate::samples       240795                       # Bytes accessed per row activation
system.mem_ctrls0.bytesPerActivate::mean    65.043743                       # Bytes accessed per row activation
system.mem_ctrls0.bytesPerActivate::gmean    64.683720                       # Bytes accessed per row activation
system.mem_ctrls0.bytesPerActivate::stdev    10.093289                       # Bytes accessed per row activation
system.mem_ctrls0.bytesPerActivate::0-127       237279     98.54%     98.54% # Bytes accessed per row activation
system.mem_ctrls0.bytesPerActivate::128-255         3420      1.42%     99.96% # Bytes accessed per row activation
system.mem_ctrls0.bytesPerActivate::256-383           63      0.03%     99.99% # Bytes accessed per row activation
system.mem_ctrls0.bytesPerActivate::384-511           18      0.01%     99.99% # Bytes accessed per row activation
system.mem_ctrls0.bytesPerActivate::512-639           11      0.00%    100.00% # Bytes accessed per row activation
system.mem_ctrls0.bytesPerActivate::640-767            1      0.00%    100.00% # Bytes accessed per row activation
system.mem_ctrls0.bytesPerActivate::768-895            1      0.00%    100.00% # Bytes accessed per row activation
system.mem_ctrls0.bytesPerActivate::896-1023            1      0.00%    100.00% # Bytes accessed per row activation
system.mem_ctrls0.bytesPerActivate::1024-1151            1      0.00%    100.00% # Bytes accessed per row activation
system.mem_ctrls0.bytesPerActivate::total       240795                       # Bytes accessed per row activation
system.mem_ctrls0.rdPerTurnAround::samples         5165                       # Reads before turning the bus around for writes
system.mem_ctrls0.rdPerTurnAround::mean     29.634463                       # Reads before turning the bus around for writes
system.mem_ctrls0.rdPerTurnAround::gmean    23.482285                       # Reads before turning the bus around for writes
system.mem_ctrls0.rdPerTurnAround::stdev   323.635178                       # Reads before turning the bus around for writes
system.mem_ctrls0.rdPerTurnAround::0-1023         5164     99.98%     99.98% # Reads before turning the bus around for writes
system.mem_ctrls0.rdPerTurnAround::22528-23551            1      0.02%    100.00% # Reads before turning the bus around for writes
system.mem_ctrls0.rdPerTurnAround::total         5165                       # Reads before turning the bus around for writes
system.mem_ctrls0.wrPerTurnAround::samples         5165                       # Writes before turning the bus around for reads
system.mem_ctrls0.wrPerTurnAround::mean     17.742885                       # Writes before turning the bus around for reads
system.mem_ctrls0.wrPerTurnAround::gmean    17.725209                       # Writes before turning the bus around for reads
system.mem_ctrls0.wrPerTurnAround::stdev     0.783316                       # Writes before turning the bus around for reads
system.mem_ctrls0.wrPerTurnAround::16             750     14.52%     14.52% # Writes before turning the bus around for reads
system.mem_ctrls0.wrPerTurnAround::17              71      1.37%     15.90% # Writes before turning the bus around for reads
system.mem_ctrls0.wrPerTurnAround::18            4120     79.77%     95.66% # Writes before turning the bus around for reads
system.mem_ctrls0.wrPerTurnAround::19             218      4.22%     99.88% # Writes before turning the bus around for reads
system.mem_ctrls0.wrPerTurnAround::20               4      0.08%     99.96% # Writes before turning the bus around for reads
system.mem_ctrls0.wrPerTurnAround::21               1      0.02%     99.98% # Writes before turning the bus around for reads
system.mem_ctrls0.wrPerTurnAround::32               1      0.02%    100.00% # Writes before turning the bus around for reads
system.mem_ctrls0.wrPerTurnAround::total         5165                       # Writes before turning the bus around for reads
system.mem_ctrls0.totQLat                 27561064845                       # Total ticks spent queuing
system.mem_ctrls0.totMemAccLat            30431371095                       # Total ticks spent from burst creation until serviced by the DRAM
system.mem_ctrls0.totBusLat                 765415000                       # Total ticks spent in databus transfers
system.mem_ctrls0.avgQLat                   180040.01                       # Average queueing delay per DRAM burst
system.mem_ctrls0.avgBusLat                   5000.00                       # Average bus latency per DRAM burst
system.mem_ctrls0.avgMemAccLat              198790.01                       # Average memory access latency per DRAM burst
system.mem_ctrls0.avgRdBW                        9.65                       # Average DRAM read bandwidth in MiByte/s
system.mem_ctrls0.avgWrBW                        5.78                       # Average achieved write bandwidth in MiByte/s
system.mem_ctrls0.avgRdBWSys                     9.65                       # Average system read bandwidth in MiByte/s
system.mem_ctrls0.avgWrBWSys                     5.78                       # Average system write bandwidth in MiByte/s
system.mem_ctrls0.peakBW                     12800.00                       # Theoretical peak bandwidth in MiByte/s
system.mem_ctrls0.busUtil                        0.12                       # Data bus utilization in percentage
system.mem_ctrls0.busUtilRead                    0.08                       # Data bus utilization in percentage for reads
system.mem_ctrls0.busUtilWrite                   0.05                       # Data bus utilization in percentage for writes
system.mem_ctrls0.avgRdQLen                      1.00                       # Average read queue length when enqueuing
system.mem_ctrls0.avgWrQLen                     20.83                       # Average write queue length when enqueuing
system.mem_ctrls0.readRowHits                    3436                       # Number of row buffer hits during reads
system.mem_ctrls0.writeRowHits                    491                       # Number of row buffer hits during writes
system.mem_ctrls0.readRowHitRate                 2.24                       # Row buffer hit rate for reads
system.mem_ctrls0.writeRowHitRate                0.54                       # Row buffer hit rate for writes
system.mem_ctrls0.avgGap                   4147146.04                       # Average gap between requests
system.mem_ctrls0.pageHitRate                    1.60                       # Row buffer hit rate, read and write combined
system.mem_ctrls0_0.actEnergy               862354920                       # Energy for activate commands per rank (pJ)
system.mem_ctrls0_0.preEnergy               458348715                       # Energy for precharge commands per rank (pJ)
system.mem_ctrls0_0.readEnergy              549580080                       # Energy for read commands per rank (pJ)
system.mem_ctrls0_0.writeEnergy             239916420                       # Energy for write commands per rank (pJ)
system.mem_ctrls0_0.refreshEnergy        58360068000.000015                       # Energy for refresh commands per rank (pJ)
system.mem_ctrls0_0.actBackEnergy         18987747090                       # Energy for active background per rank (pJ)
system.mem_ctrls0_0.preBackEnergy          3319504800                       # Energy for precharge background per rank (pJ)
system.mem_ctrls0_0.actPowerDownEnergy   120414206580                       # Energy for active power-down per rank (pJ)
system.mem_ctrls0_0.prePowerDownEnergy    96847950240                       # Energy for precharge power-down per rank (pJ)
system.mem_ctrls0_0.selfRefreshEnergy    120805547250                       # Energy for self refresh per rank (pJ)
system.mem_ctrls0_0.totalEnergy          420869756145                       # Total energy per rank (pJ)
system.mem_ctrls0_0.averagePower           414.623801                       # Core power per rank (mW)
system.mem_ctrls0_0.totalIdleTime        964724335770                       # Total Idle time Per DRAM Rank
system.mem_ctrls0_0.memoryStateTime::IDLE   6574073842                       # Time in different power states
system.mem_ctrls0_0.memoryStateTime::REF  24832434000                       # Time in different power states
system.mem_ctrls0_0.memoryStateTime::SREF 448450733819                       # Time in different power states
system.mem_ctrls0_0.memoryStateTime::PRE_PDN 252208201482                       # Time in different power states
system.mem_ctrls0_0.memoryStateTime::ACT  18932637699                       # Time in different power states
system.mem_ctrls0_0.memoryStateTime::ACT_PDN 264066061602                       # Time in different power states
system.mem_ctrls0_1.actEnergy               856942800                       # Energy for activate commands per rank (pJ)
system.mem_ctrls0_1.preEnergy               455468310                       # Energy for precharge commands per rank (pJ)
system.mem_ctrls0_1.readEnergy              543432540                       # Energy for read commands per rank (pJ)
system.mem_ctrls0_1.writeEnergy             238454820                       # Energy for write commands per rank (pJ)
system.mem_ctrls0_1.refreshEnergy        58082865360.000015                       # Energy for refresh commands per rank (pJ)
system.mem_ctrls0_1.actBackEnergy         18818903970                       # Energy for active background per rank (pJ)
system.mem_ctrls0_1.preBackEnergy          3317636640                       # Energy for precharge background per rank (pJ)
system.mem_ctrls0_1.actPowerDownEnergy   119538489360                       # Energy for active power-down per rank (pJ)
system.mem_ctrls0_1.prePowerDownEnergy    96534922080                       # Energy for precharge power-down per rank (pJ)
system.mem_ctrls0_1.selfRefreshEnergy    121521843465                       # Energy for self refresh per rank (pJ)
system.mem_ctrls0_1.totalEnergy          419934312495                       # Total energy per rank (pJ)
system.mem_ctrls0_1.averagePower           413.702235                       # Core power per rank (mW)
system.mem_ctrls0_1.totalIdleTime        965098738671                       # Total Idle time Per DRAM Rank
system.mem_ctrls0_1.memoryStateTime::IDLE   6572853190                       # Time in different power states
system.mem_ctrls0_1.memoryStateTime::REF  24714778000                       # Time in different power states
system.mem_ctrls0_1.memoryStateTime::SREF 451559813132                       # Time in different power states
system.mem_ctrls0_1.memoryStateTime::PRE_PDN 251393456800                       # Time in different power states
system.mem_ctrls0_1.memoryStateTime::ACT  18677479748                       # Time in different power states
system.mem_ctrls0_1.memoryStateTime::ACT_PDN 262145761574                       # Time in different power states
system.mem_ctrls1.pwrStateResidencyTicks::UNDEFINED 400904033748912                       # Cumulative time (in ticks) in various power states
system.mem_ctrls1.bytes_read::cpu.inst            128                       # Number of bytes read from this memory
system.mem_ctrls1.bytes_read::cpu.data            128                       # Number of bytes read from this memory
system.mem_ctrls1.bytes_read::switch_cpus.inst        20992                       # Number of bytes read from this memory
system.mem_ctrls1.bytes_read::switch_cpus.data      8169664                       # Number of bytes read from this memory
system.mem_ctrls1.bytes_read::switch_cpus_1.inst         3584                       # Number of bytes read from this memory
system.mem_ctrls1.bytes_read::switch_cpus_1.data      1619776                       # Number of bytes read from this memory
system.mem_ctrls1.bytes_read::total           9814272                       # Number of bytes read from this memory
system.mem_ctrls1.bytes_inst_read::cpu.inst          128                       # Number of instructions bytes read from this memory
system.mem_ctrls1.bytes_inst_read::switch_cpus.inst        20992                       # Number of instructions bytes read from this memory
system.mem_ctrls1.bytes_inst_read::switch_cpus_1.inst         3584                       # Number of instructions bytes read from this memory
system.mem_ctrls1.bytes_inst_read::total        24704                       # Number of instructions bytes read from this memory
system.mem_ctrls1.bytes_written::writebacks      5900480                       # Number of bytes written to this memory
system.mem_ctrls1.bytes_written::total        5900480                       # Number of bytes written to this memory
system.mem_ctrls1.num_reads::cpu.inst               2                       # Number of read requests responded to by this memory
system.mem_ctrls1.num_reads::cpu.data               2                       # Number of read requests responded to by this memory
system.mem_ctrls1.num_reads::switch_cpus.inst          328                       # Number of read requests responded to by this memory
system.mem_ctrls1.num_reads::switch_cpus.data       127651                       # Number of read requests responded to by this memory
system.mem_ctrls1.num_reads::switch_cpus_1.inst           56                       # Number of read requests responded to by this memory
system.mem_ctrls1.num_reads::switch_cpus_1.data        25309                       # Number of read requests responded to by this memory
system.mem_ctrls1.num_reads::total             153348                       # Number of read requests responded to by this memory
system.mem_ctrls1.num_writes::writebacks        92195                       # Number of write requests responded to by this memory
system.mem_ctrls1.num_writes::total             92195                       # Number of write requests responded to by this memory
system.mem_ctrls1.bw_read::cpu.inst               126                       # Total read bandwidth from this memory (bytes/s)
system.mem_ctrls1.bw_read::cpu.data               126                       # Total read bandwidth from this memory (bytes/s)
system.mem_ctrls1.bw_read::switch_cpus.inst        20680                       # Total read bandwidth from this memory (bytes/s)
system.mem_ctrls1.bw_read::switch_cpus.data      8048421                       # Total read bandwidth from this memory (bytes/s)
system.mem_ctrls1.bw_read::switch_cpus_1.inst         3531                       # Total read bandwidth from this memory (bytes/s)
system.mem_ctrls1.bw_read::switch_cpus_1.data      1595738                       # Total read bandwidth from this memory (bytes/s)
system.mem_ctrls1.bw_read::total              9668622                       # Total read bandwidth from this memory (bytes/s)
system.mem_ctrls1.bw_inst_read::cpu.inst          126                       # Instruction read bandwidth from this memory (bytes/s)
system.mem_ctrls1.bw_inst_read::switch_cpus.inst        20680                       # Instruction read bandwidth from this memory (bytes/s)
system.mem_ctrls1.bw_inst_read::switch_cpus_1.inst         3531                       # Instruction read bandwidth from this memory (bytes/s)
system.mem_ctrls1.bw_inst_read::total           24337                       # Instruction read bandwidth from this memory (bytes/s)
system.mem_ctrls1.bw_write::writebacks        5812913                       # Write bandwidth from this memory (bytes/s)
system.mem_ctrls1.bw_write::total             5812913                       # Write bandwidth from this memory (bytes/s)
system.mem_ctrls1.bw_total::writebacks        5812913                       # Total bandwidth to/from this memory (bytes/s)
system.mem_ctrls1.bw_total::cpu.inst              126                       # Total bandwidth to/from this memory (bytes/s)
system.mem_ctrls1.bw_total::cpu.data              126                       # Total bandwidth to/from this memory (bytes/s)
system.mem_ctrls1.bw_total::switch_cpus.inst        20680                       # Total bandwidth to/from this memory (bytes/s)
system.mem_ctrls1.bw_total::switch_cpus.data      8048421                       # Total bandwidth to/from this memory (bytes/s)
system.mem_ctrls1.bw_total::switch_cpus_1.inst         3531                       # Total bandwidth to/from this memory (bytes/s)
system.mem_ctrls1.bw_total::switch_cpus_1.data      1595738                       # Total bandwidth to/from this memory (bytes/s)
system.mem_ctrls1.bw_total::total            15481536                       # Total bandwidth to/from this memory (bytes/s)
system.mem_ctrls1.readReqs                     153348                       # Number of read requests accepted
system.mem_ctrls1.writeReqs                     92195                       # Number of write requests accepted
system.mem_ctrls1.readBursts                   153348                       # Number of DRAM read bursts, including those serviced by the write queue
system.mem_ctrls1.writeBursts                   92195                       # Number of DRAM write bursts, including those merged in the write queue
system.mem_ctrls1.bytesReadDRAM               9813888                       # Total number of bytes read from DRAM
system.mem_ctrls1.bytesReadWrQ                    384                       # Total number of bytes read from write queue
system.mem_ctrls1.bytesWritten                5898560                       # Total number of bytes written to DRAM
system.mem_ctrls1.bytesReadSys                9814272                       # Total read bytes from the system interface side
system.mem_ctrls1.bytesWrittenSys             5900480                       # Total written bytes from the system interface side
system.mem_ctrls1.servicedByWrQ                     6                       # Number of DRAM read bursts serviced by the write queue
system.mem_ctrls1.mergedWrBursts                    0                       # Number of DRAM write bursts merged with an existing one
system.mem_ctrls1.neitherReadNorWriteReqs            0                       # Number of requests that are neither read nor write
system.mem_ctrls1.perBankRdBursts::0             9519                       # Per bank write bursts
system.mem_ctrls1.perBankRdBursts::1             9747                       # Per bank write bursts
system.mem_ctrls1.perBankRdBursts::2             9583                       # Per bank write bursts
system.mem_ctrls1.perBankRdBursts::3             9780                       # Per bank write bursts
system.mem_ctrls1.perBankRdBursts::4             9682                       # Per bank write bursts
system.mem_ctrls1.perBankRdBursts::5             9554                       # Per bank write bursts
system.mem_ctrls1.perBankRdBursts::6             9453                       # Per bank write bursts
system.mem_ctrls1.perBankRdBursts::7             9664                       # Per bank write bursts
system.mem_ctrls1.perBankRdBursts::8             9385                       # Per bank write bursts
system.mem_ctrls1.perBankRdBursts::9             9807                       # Per bank write bursts
system.mem_ctrls1.perBankRdBursts::10            9549                       # Per bank write bursts
system.mem_ctrls1.perBankRdBursts::11            9597                       # Per bank write bursts
system.mem_ctrls1.perBankRdBursts::12            9413                       # Per bank write bursts
system.mem_ctrls1.perBankRdBursts::13            9506                       # Per bank write bursts
system.mem_ctrls1.perBankRdBursts::14            9470                       # Per bank write bursts
system.mem_ctrls1.perBankRdBursts::15            9633                       # Per bank write bursts
system.mem_ctrls1.perBankWrBursts::0             5750                       # Per bank write bursts
system.mem_ctrls1.perBankWrBursts::1             5789                       # Per bank write bursts
system.mem_ctrls1.perBankWrBursts::2             5743                       # Per bank write bursts
system.mem_ctrls1.perBankWrBursts::3             5872                       # Per bank write bursts
system.mem_ctrls1.perBankWrBursts::4             5785                       # Per bank write bursts
system.mem_ctrls1.perBankWrBursts::5             5713                       # Per bank write bursts
system.mem_ctrls1.perBankWrBursts::6             5606                       # Per bank write bursts
system.mem_ctrls1.perBankWrBursts::7             5811                       # Per bank write bursts
system.mem_ctrls1.perBankWrBursts::8             5644                       # Per bank write bursts
system.mem_ctrls1.perBankWrBursts::9             5943                       # Per bank write bursts
system.mem_ctrls1.perBankWrBursts::10            5763                       # Per bank write bursts
system.mem_ctrls1.perBankWrBursts::11            5792                       # Per bank write bursts
system.mem_ctrls1.perBankWrBursts::12            5715                       # Per bank write bursts
system.mem_ctrls1.perBankWrBursts::13            5719                       # Per bank write bursts
system.mem_ctrls1.perBankWrBursts::14            5704                       # Per bank write bursts
system.mem_ctrls1.perBankWrBursts::15            5816                       # Per bank write bursts
system.mem_ctrls1.numRdRetry                        0                       # Number of times read queue was full causing retry
system.mem_ctrls1.numWrRetry                        0                       # Number of times write queue was full causing retry
system.mem_ctrls1.totGap                 1015064054199                       # Total gap between requests
system.mem_ctrls1.readPktSize::0                    0                       # Read request sizes (log2)
system.mem_ctrls1.readPktSize::1                    0                       # Read request sizes (log2)
system.mem_ctrls1.readPktSize::2                    0                       # Read request sizes (log2)
system.mem_ctrls1.readPktSize::3                    0                       # Read request sizes (log2)
system.mem_ctrls1.readPktSize::4                    0                       # Read request sizes (log2)
system.mem_ctrls1.readPktSize::5                    0                       # Read request sizes (log2)
system.mem_ctrls1.readPktSize::6               153348                       # Read request sizes (log2)
system.mem_ctrls1.writePktSize::0                   0                       # Write request sizes (log2)
system.mem_ctrls1.writePktSize::1                   0                       # Write request sizes (log2)
system.mem_ctrls1.writePktSize::2                   0                       # Write request sizes (log2)
system.mem_ctrls1.writePktSize::3                   0                       # Write request sizes (log2)
system.mem_ctrls1.writePktSize::4                   0                       # Write request sizes (log2)
system.mem_ctrls1.writePktSize::5                   0                       # Write request sizes (log2)
system.mem_ctrls1.writePktSize::6               92195                       # Write request sizes (log2)
system.mem_ctrls1.rdQLenPdf::0                 153258                       # What read queue length does an incoming req see
system.mem_ctrls1.rdQLenPdf::1                     81                       # What read queue length does an incoming req see
system.mem_ctrls1.rdQLenPdf::2                      3                       # What read queue length does an incoming req see
system.mem_ctrls1.rdQLenPdf::3                      0                       # What read queue length does an incoming req see
system.mem_ctrls1.rdQLenPdf::4                      0                       # What read queue length does an incoming req see
system.mem_ctrls1.rdQLenPdf::5                      0                       # What read queue length does an incoming req see
system.mem_ctrls1.rdQLenPdf::6                      0                       # What read queue length does an incoming req see
system.mem_ctrls1.rdQLenPdf::7                      0                       # What read queue length does an incoming req see
system.mem_ctrls1.rdQLenPdf::8                      0                       # What read queue length does an incoming req see
system.mem_ctrls1.rdQLenPdf::9                      0                       # What read queue length does an incoming req see
system.mem_ctrls1.rdQLenPdf::10                     0                       # What read queue length does an incoming req see
system.mem_ctrls1.rdQLenPdf::11                     0                       # What read queue length does an incoming req see
system.mem_ctrls1.rdQLenPdf::12                     0                       # What read queue length does an incoming req see
system.mem_ctrls1.rdQLenPdf::13                     0                       # What read queue length does an incoming req see
system.mem_ctrls1.rdQLenPdf::14                     0                       # What read queue length does an incoming req see
system.mem_ctrls1.rdQLenPdf::15                     0                       # What read queue length does an incoming req see
system.mem_ctrls1.rdQLenPdf::16                     0                       # What read queue length does an incoming req see
system.mem_ctrls1.rdQLenPdf::17                     0                       # What read queue length does an incoming req see
system.mem_ctrls1.rdQLenPdf::18                     0                       # What read queue length does an incoming req see
system.mem_ctrls1.rdQLenPdf::19                     0                       # What read queue length does an incoming req see
system.mem_ctrls1.rdQLenPdf::20                     0                       # What read queue length does an incoming req see
system.mem_ctrls1.rdQLenPdf::21                     0                       # What read queue length does an incoming req see
system.mem_ctrls1.rdQLenPdf::22                     0                       # What read queue length does an incoming req see
system.mem_ctrls1.rdQLenPdf::23                     0                       # What read queue length does an incoming req see
system.mem_ctrls1.rdQLenPdf::24                     0                       # What read queue length does an incoming req see
system.mem_ctrls1.rdQLenPdf::25                     0                       # What read queue length does an incoming req see
system.mem_ctrls1.rdQLenPdf::26                     0                       # What read queue length does an incoming req see
system.mem_ctrls1.rdQLenPdf::27                     0                       # What read queue length does an incoming req see
system.mem_ctrls1.rdQLenPdf::28                     0                       # What read queue length does an incoming req see
system.mem_ctrls1.rdQLenPdf::29                     0                       # What read queue length does an incoming req see
system.mem_ctrls1.rdQLenPdf::30                     0                       # What read queue length does an incoming req see
system.mem_ctrls1.rdQLenPdf::31                     0                       # What read queue length does an incoming req see
system.mem_ctrls1.wrQLenPdf::0                      2                       # What write queue length does an incoming req see
system.mem_ctrls1.wrQLenPdf::1                      2                       # What write queue length does an incoming req see
system.mem_ctrls1.wrQLenPdf::2                      2                       # What write queue length does an incoming req see
system.mem_ctrls1.wrQLenPdf::3                      2                       # What write queue length does an incoming req see
system.mem_ctrls1.wrQLenPdf::4                      2                       # What write queue length does an incoming req see
system.mem_ctrls1.wrQLenPdf::5                      2                       # What write queue length does an incoming req see
system.mem_ctrls1.wrQLenPdf::6                      2                       # What write queue length does an incoming req see
system.mem_ctrls1.wrQLenPdf::7                      2                       # What write queue length does an incoming req see
system.mem_ctrls1.wrQLenPdf::8                      2                       # What write queue length does an incoming req see
system.mem_ctrls1.wrQLenPdf::9                      2                       # What write queue length does an incoming req see
system.mem_ctrls1.wrQLenPdf::10                     2                       # What write queue length does an incoming req see
system.mem_ctrls1.wrQLenPdf::11                     2                       # What write queue length does an incoming req see
system.mem_ctrls1.wrQLenPdf::12                     2                       # What write queue length does an incoming req see
system.mem_ctrls1.wrQLenPdf::13                     2                       # What write queue length does an incoming req see
system.mem_ctrls1.wrQLenPdf::14                     2                       # What write queue length does an incoming req see
system.mem_ctrls1.wrQLenPdf::15                  4374                       # What write queue length does an incoming req see
system.mem_ctrls1.wrQLenPdf::16                  4459                       # What write queue length does an incoming req see
system.mem_ctrls1.wrQLenPdf::17                  5190                       # What write queue length does an incoming req see
system.mem_ctrls1.wrQLenPdf::18                  5209                       # What write queue length does an incoming req see
system.mem_ctrls1.wrQLenPdf::19                  5209                       # What write queue length does an incoming req see
system.mem_ctrls1.wrQLenPdf::20                  5208                       # What write queue length does an incoming req see
system.mem_ctrls1.wrQLenPdf::21                  5206                       # What write queue length does an incoming req see
system.mem_ctrls1.wrQLenPdf::22                  5208                       # What write queue length does an incoming req see
system.mem_ctrls1.wrQLenPdf::23                  5207                       # What write queue length does an incoming req see
system.mem_ctrls1.wrQLenPdf::24                  5208                       # What write queue length does an incoming req see
system.mem_ctrls1.wrQLenPdf::25                  5201                       # What write queue length does an incoming req see
system.mem_ctrls1.wrQLenPdf::26                  5249                       # What write queue length does an incoming req see
system.mem_ctrls1.wrQLenPdf::27                  5227                       # What write queue length does an incoming req see
system.mem_ctrls1.wrQLenPdf::28                  5198                       # What write queue length does an incoming req see
system.mem_ctrls1.wrQLenPdf::29                  5199                       # What write queue length does an incoming req see
system.mem_ctrls1.wrQLenPdf::30                  5199                       # What write queue length does an incoming req see
system.mem_ctrls1.wrQLenPdf::31                  5196                       # What write queue length does an incoming req see
system.mem_ctrls1.wrQLenPdf::32                  5196                       # What write queue length does an incoming req see
system.mem_ctrls1.wrQLenPdf::33                    22                       # What write queue length does an incoming req see
system.mem_ctrls1.wrQLenPdf::34                     0                       # What write queue length does an incoming req see
system.mem_ctrls1.wrQLenPdf::35                     0                       # What write queue length does an incoming req see
system.mem_ctrls1.wrQLenPdf::36                     0                       # What write queue length does an incoming req see
system.mem_ctrls1.wrQLenPdf::37                     0                       # What write queue length does an incoming req see
system.mem_ctrls1.wrQLenPdf::38                     0                       # What write queue length does an incoming req see
system.mem_ctrls1.wrQLenPdf::39                     0                       # What write queue length does an incoming req see
system.mem_ctrls1.wrQLenPdf::40                     0                       # What write queue length does an incoming req see
system.mem_ctrls1.wrQLenPdf::41                     0                       # What write queue length does an incoming req see
system.mem_ctrls1.wrQLenPdf::42                     0                       # What write queue length does an incoming req see
system.mem_ctrls1.wrQLenPdf::43                     0                       # What write queue length does an incoming req see
system.mem_ctrls1.wrQLenPdf::44                     0                       # What write queue length does an incoming req see
system.mem_ctrls1.wrQLenPdf::45                     0                       # What write queue length does an incoming req see
system.mem_ctrls1.wrQLenPdf::46                     0                       # What write queue length does an incoming req see
system.mem_ctrls1.wrQLenPdf::47                     0                       # What write queue length does an incoming req see
system.mem_ctrls1.wrQLenPdf::48                     0                       # What write queue length does an incoming req see
system.mem_ctrls1.wrQLenPdf::49                     0                       # What write queue length does an incoming req see
system.mem_ctrls1.wrQLenPdf::50                     0                       # What write queue length does an incoming req see
system.mem_ctrls1.wrQLenPdf::51                     0                       # What write queue length does an incoming req see
system.mem_ctrls1.wrQLenPdf::52                     0                       # What write queue length does an incoming req see
system.mem_ctrls1.wrQLenPdf::53                     0                       # What write queue length does an incoming req see
system.mem_ctrls1.wrQLenPdf::54                     0                       # What write queue length does an incoming req see
system.mem_ctrls1.wrQLenPdf::55                     0                       # What write queue length does an incoming req see
system.mem_ctrls1.wrQLenPdf::56                     0                       # What write queue length does an incoming req see
system.mem_ctrls1.wrQLenPdf::57                     0                       # What write queue length does an incoming req see
system.mem_ctrls1.wrQLenPdf::58                     0                       # What write queue length does an incoming req see
system.mem_ctrls1.wrQLenPdf::59                     0                       # What write queue length does an incoming req see
system.mem_ctrls1.wrQLenPdf::60                     0                       # What write queue length does an incoming req see
system.mem_ctrls1.wrQLenPdf::61                     0                       # What write queue length does an incoming req see
system.mem_ctrls1.wrQLenPdf::62                     0                       # What write queue length does an incoming req see
system.mem_ctrls1.wrQLenPdf::63                     0                       # What write queue length does an incoming req see
system.mem_ctrls1.bytesPerActivate::samples       241613                       # Bytes accessed per row activation
system.mem_ctrls1.bytesPerActivate::mean    65.030408                       # Bytes accessed per row activation
system.mem_ctrls1.bytesPerActivate::gmean    64.675721                       # Bytes accessed per row activation
system.mem_ctrls1.bytesPerActivate::stdev     9.983576                       # Bytes accessed per row activation
system.mem_ctrls1.bytesPerActivate::64-127       238121     98.55%     98.55% # Bytes accessed per row activation
system.mem_ctrls1.bytesPerActivate::128-191         3331      1.38%     99.93% # Bytes accessed per row activation
system.mem_ctrls1.bytesPerActivate::192-255           71      0.03%     99.96% # Bytes accessed per row activation
system.mem_ctrls1.bytesPerActivate::256-319           36      0.01%     99.98% # Bytes accessed per row activation
system.mem_ctrls1.bytesPerActivate::320-383           17      0.01%     99.98% # Bytes accessed per row activation
system.mem_ctrls1.bytesPerActivate::384-447           16      0.01%     99.99% # Bytes accessed per row activation
system.mem_ctrls1.bytesPerActivate::448-511            9      0.00%    100.00% # Bytes accessed per row activation
system.mem_ctrls1.bytesPerActivate::512-575            4      0.00%    100.00% # Bytes accessed per row activation
system.mem_ctrls1.bytesPerActivate::576-639            3      0.00%    100.00% # Bytes accessed per row activation
system.mem_ctrls1.bytesPerActivate::640-703            1      0.00%    100.00% # Bytes accessed per row activation
system.mem_ctrls1.bytesPerActivate::704-767            1      0.00%    100.00% # Bytes accessed per row activation
system.mem_ctrls1.bytesPerActivate::768-831            2      0.00%    100.00% # Bytes accessed per row activation
system.mem_ctrls1.bytesPerActivate::960-1023            1      0.00%    100.00% # Bytes accessed per row activation
system.mem_ctrls1.bytesPerActivate::total       241613                       # Bytes accessed per row activation
system.mem_ctrls1.rdPerTurnAround::samples         5197                       # Reads before turning the bus around for writes
system.mem_ctrls1.rdPerTurnAround::mean     29.501443                       # Reads before turning the bus around for writes
system.mem_ctrls1.rdPerTurnAround::gmean    23.373414                       # Reads before turning the bus around for writes
system.mem_ctrls1.rdPerTurnAround::stdev   323.608199                       # Reads before turning the bus around for writes
system.mem_ctrls1.rdPerTurnAround::0-1023         5196     99.98%     99.98% # Reads before turning the bus around for writes
system.mem_ctrls1.rdPerTurnAround::22528-23551            1      0.02%    100.00% # Reads before turning the bus around for writes
system.mem_ctrls1.rdPerTurnAround::total         5197                       # Reads before turning the bus around for writes
system.mem_ctrls1.wrPerTurnAround::samples         5197                       # Writes before turning the bus around for reads
system.mem_ctrls1.wrPerTurnAround::mean     17.734270                       # Writes before turning the bus around for reads
system.mem_ctrls1.wrPerTurnAround::gmean    17.717652                       # Writes before turning the bus around for reads
system.mem_ctrls1.wrPerTurnAround::stdev     0.751445                       # Writes before turning the bus around for reads
system.mem_ctrls1.wrPerTurnAround::16             746     14.35%     14.35% # Writes before turning the bus around for reads
system.mem_ctrls1.wrPerTurnAround::17              76      1.46%     15.82% # Writes before turning the bus around for reads
system.mem_ctrls1.wrPerTurnAround::18            4200     80.82%     96.63% # Writes before turning the bus around for reads
system.mem_ctrls1.wrPerTurnAround::19             168      3.23%     99.87% # Writes before turning the bus around for reads
system.mem_ctrls1.wrPerTurnAround::20               6      0.12%     99.98% # Writes before turning the bus around for reads
system.mem_ctrls1.wrPerTurnAround::25               1      0.02%    100.00% # Writes before turning the bus around for reads
system.mem_ctrls1.wrPerTurnAround::total         5197                       # Writes before turning the bus around for reads
system.mem_ctrls1.totQLat                 27429653262                       # Total ticks spent queuing
system.mem_ctrls1.totMemAccLat            30304815762                       # Total ticks spent from burst creation until serviced by the DRAM
system.mem_ctrls1.totBusLat                 766710000                       # Total ticks spent in databus transfers
system.mem_ctrls1.avgQLat                   178878.93                       # Average queueing delay per DRAM burst
system.mem_ctrls1.avgBusLat                   5000.00                       # Average bus latency per DRAM burst
system.mem_ctrls1.avgMemAccLat              197628.93                       # Average memory access latency per DRAM burst
system.mem_ctrls1.avgRdBW                        9.67                       # Average DRAM read bandwidth in MiByte/s
system.mem_ctrls1.avgWrBW                        5.81                       # Average achieved write bandwidth in MiByte/s
system.mem_ctrls1.avgRdBWSys                     9.67                       # Average system read bandwidth in MiByte/s
system.mem_ctrls1.avgWrBWSys                     5.81                       # Average system write bandwidth in MiByte/s
system.mem_ctrls1.peakBW                     12800.00                       # Theoretical peak bandwidth in MiByte/s
system.mem_ctrls1.busUtil                        0.12                       # Data bus utilization in percentage
system.mem_ctrls1.busUtilRead                    0.08                       # Data bus utilization in percentage for reads
system.mem_ctrls1.busUtilWrite                   0.05                       # Data bus utilization in percentage for writes
system.mem_ctrls1.avgRdQLen                      1.00                       # Average read queue length when enqueuing
system.mem_ctrls1.avgWrQLen                     21.06                       # Average write queue length when enqueuing
system.mem_ctrls1.readRowHits                    3373                       # Number of row buffer hits during reads
system.mem_ctrls1.writeRowHits                    517                       # Number of row buffer hits during writes
system.mem_ctrls1.readRowHitRate                 2.20                       # Row buffer hit rate for reads
system.mem_ctrls1.writeRowHitRate                0.56                       # Row buffer hit rate for writes
system.mem_ctrls1.avgGap                   4133956.39                       # Average gap between requests
system.mem_ctrls1.pageHitRate                    1.58                       # Row buffer hit rate, read and write combined
system.mem_ctrls1_0.actEnergy               863411640                       # Energy for activate commands per rank (pJ)
system.mem_ctrls1_0.preEnergy               458906580                       # Energy for precharge commands per rank (pJ)
system.mem_ctrls1_0.readEnergy              549651480                       # Energy for read commands per rank (pJ)
system.mem_ctrls1_0.writeEnergy             240480180                       # Energy for write commands per rank (pJ)
system.mem_ctrls1_0.refreshEnergy        58185510240.000015                       # Energy for refresh commands per rank (pJ)
system.mem_ctrls1_0.actBackEnergy         18813611520                       # Energy for active background per rank (pJ)
system.mem_ctrls1_0.preBackEnergy          3307891200                       # Energy for precharge background per rank (pJ)
system.mem_ctrls1_0.actPowerDownEnergy   120305622720                       # Energy for active power-down per rank (pJ)
system.mem_ctrls1_0.prePowerDownEnergy    96494655360                       # Energy for precharge power-down per rank (pJ)
system.mem_ctrls1_0.selfRefreshEnergy    121133963955                       # Energy for self refresh per rank (pJ)
system.mem_ctrls1_0.totalEnergy          420378295125                       # Total energy per rank (pJ)
system.mem_ctrls1_0.averagePower           414.139633                       # Core power per rank (mW)
system.mem_ctrls1_0.totalIdleTime        965134523539                       # Total Idle time Per DRAM Rank
system.mem_ctrls1_0.memoryStateTime::IDLE   6550260115                       # Time in different power states
system.mem_ctrls1_0.memoryStateTime::REF  24758000000                       # Time in different power states
system.mem_ctrls1_0.memoryStateTime::SREF 450020890781                       # Time in different power states
system.mem_ctrls1_0.memoryStateTime::PRE_PDN 251288280054                       # Time in different power states
system.mem_ctrls1_0.memoryStateTime::ACT  18618652468                       # Time in different power states
system.mem_ctrls1_0.memoryStateTime::ACT_PDN 263828059026                       # Time in different power states
system.mem_ctrls1_1.actEnergy               861733740                       # Energy for activate commands per rank (pJ)
system.mem_ctrls1_1.preEnergy               458014755                       # Energy for precharge commands per rank (pJ)
system.mem_ctrls1_1.readEnergy              545210400                       # Energy for read commands per rank (pJ)
system.mem_ctrls1_1.writeEnergy             240621120                       # Energy for write commands per rank (pJ)
system.mem_ctrls1_1.refreshEnergy        58016484240.000015                       # Energy for refresh commands per rank (pJ)
system.mem_ctrls1_1.actBackEnergy         18870382380                       # Energy for active background per rank (pJ)
system.mem_ctrls1_1.preBackEnergy          3302006880                       # Energy for precharge background per rank (pJ)
system.mem_ctrls1_1.actPowerDownEnergy   119794177110                       # Energy for active power-down per rank (pJ)
system.mem_ctrls1_1.prePowerDownEnergy    96439106880                       # Energy for precharge power-down per rank (pJ)
system.mem_ctrls1_1.selfRefreshEnergy    121336588320                       # Energy for self refresh per rank (pJ)
system.mem_ctrls1_1.totalEnergy          419888878305                       # Total energy per rank (pJ)
system.mem_ctrls1_1.averagePower           413.657476                       # Core power per rank (mW)
system.mem_ctrls1_1.totalIdleTime        965028317839                       # Total Idle time Per DRAM Rank
system.mem_ctrls1_1.memoryStateTime::IDLE   6529271734                       # Time in different power states
system.mem_ctrls1_1.memoryStateTime::REF  24685714000                       # Time in different power states
system.mem_ctrls1_1.memoryStateTime::SREF 451178192500                       # Time in different power states
system.mem_ctrls1_1.memoryStateTime::PRE_PDN 251143592889                       # Time in different power states
system.mem_ctrls1_1.memoryStateTime::ACT  18820381867                       # Time in different power states
system.mem_ctrls1_1.memoryStateTime::ACT_PDN 262706989454                       # Time in different power states
system.pwrStateResidencyTicks::UNDEFINED 400904033748912                       # Cumulative time (in ticks) in various power states
system.cpu.branchPred.lookups                      33                       # Number of BP lookups
system.cpu.branchPred.condPredicted                32                       # Number of conditional branches predicted
system.cpu.branchPred.condIncorrect                 5                       # Number of conditional branches incorrect
system.cpu.branchPred.BTBLookups                    0                       # Number of BTB lookups
system.cpu.branchPred.BTBHits                       0                       # Number of BTB hits
system.cpu.branchPred.BTBCorrect                    0                       # Number of correct BTB predictions (this stat may not work properly.
system.cpu.branchPred.BTBHitPct                   nan                       # BTB Hit Percentage
system.cpu.branchPred.usedRAS                       1                       # Number of times the RAS was used to get a target.
system.cpu.branchPred.RASInCorrect                  0                       # Number of incorrect RAS predictions.
system.cpu.branchPred.indirectLookups               0                       # Number of indirect predictor lookups.
system.cpu.branchPred.indirectHits                  0                       # Number of indirect target hits.
system.cpu.branchPred.indirectMisses                0                       # Number of indirect misses.
system.cpu.branchPredindirectMispredicted            0                       # Number of mispredicted indirect branches.
system.cpu_voltage_domain.voltage                   1                       # Voltage in Volts
system.cpu_clk_domain.clock                       333                       # Clock period in ticks
system.cpu.dtb.fetch_hits                           0                       # ITB hits
system.cpu.dtb.fetch_misses                         0                       # ITB misses
system.cpu.dtb.fetch_acv                            0                       # ITB acv
system.cpu.dtb.fetch_accesses                       0                       # ITB accesses
system.cpu.dtb.read_hits                            7                       # DTB read hits
system.cpu.dtb.read_misses                          0                       # DTB read misses
system.cpu.dtb.read_acv                             0                       # DTB read access violations
system.cpu.dtb.read_accesses                        7                       # DTB read accesses
system.cpu.dtb.write_hits                           0                       # DTB write hits
system.cpu.dtb.write_misses                         0                       # DTB write misses
system.cpu.dtb.write_acv                            0                       # DTB write access violations
system.cpu.dtb.write_accesses                       0                       # DTB write accesses
system.cpu.dtb.data_hits                            7                       # DTB hits
system.cpu.dtb.data_misses                          0                       # DTB misses
system.cpu.dtb.data_acv                             0                       # DTB access violations
system.cpu.dtb.data_accesses                        7                       # DTB accesses
system.cpu.itb.fetch_hits                          20                       # ITB hits
system.cpu.itb.fetch_misses                         1                       # ITB misses
system.cpu.itb.fetch_acv                            0                       # ITB acv
system.cpu.itb.fetch_accesses                      21                       # ITB accesses
system.cpu.itb.read_hits                            0                       # DTB read hits
system.cpu.itb.read_misses                          0                       # DTB read misses
system.cpu.itb.read_acv                             0                       # DTB read access violations
system.cpu.itb.read_accesses                        0                       # DTB read accesses
system.cpu.itb.write_hits                           0                       # DTB write hits
system.cpu.itb.write_misses                         0                       # DTB write misses
system.cpu.itb.write_acv                            0                       # DTB write access violations
system.cpu.itb.write_accesses                       0                       # DTB write accesses
system.cpu.itb.data_hits                            0                       # DTB hits
system.cpu.itb.data_misses                          0                       # DTB misses
system.cpu.itb.data_acv                             0                       # DTB access violations
system.cpu.itb.data_accesses                        0                       # DTB accesses
system.cpu.workload.num_syscalls                    0                       # Number of system calls
system.cpu.pwrStateResidencyTicks::ON    1015064142444                       # Cumulative time (in ticks) in various power states
system.cpu.numCycles                             1053                       # number of cpu cycles simulated
system.cpu.numWorkItemsStarted                      0                       # number of work items this cpu started
system.cpu.numWorkItemsCompleted                    0                       # number of work items this cpu completed
system.cpu.fetch.icacheStallCycles                 83                       # Number of cycles fetch is stalled on an Icache miss
system.cpu.fetch.Insts                            197                       # Number of instructions fetch has processed
system.cpu.fetch.Branches                          33                       # Number of branches that fetch encountered
system.cpu.fetch.predictedBranches                  1                       # Number of branches that fetch has predicted taken
system.cpu.fetch.Cycles                            27                       # Number of cycles fetch has run and was not squashing or blocked
system.cpu.fetch.SquashCycles                      13                       # Number of cycles fetch has spent squashing
system.cpu.fetch.PendingDrainCycles                23                       # Number of cycles fetch has spent waiting on pipes to drain
system.cpu.fetch.PendingTrapStallCycles            13                       # Number of stall cycles due to pending traps
system.cpu.fetch.CacheLines                        20                       # Number of cache lines fetched
system.cpu.fetch.IcacheSquashes                     6                       # Number of outstanding Icache misses that were squashed
system.cpu.fetch.rateDist::samples                152                       # Number of instructions fetched each cycle (Total)
system.cpu.fetch.rateDist::mean              1.296053                       # Number of instructions fetched each cycle (Total)
system.cpu.fetch.rateDist::stdev             2.885999                       # Number of instructions fetched each cycle (Total)
system.cpu.fetch.rateDist::underflows               0      0.00%      0.00% # Number of instructions fetched each cycle (Total)
system.cpu.fetch.rateDist::0                      125     82.24%     82.24% # Number of instructions fetched each cycle (Total)
system.cpu.fetch.rateDist::1                        0      0.00%     82.24% # Number of instructions fetched each cycle (Total)
system.cpu.fetch.rateDist::2                        1      0.66%     82.89% # Number of instructions fetched each cycle (Total)
system.cpu.fetch.rateDist::3                        2      1.32%     84.21% # Number of instructions fetched each cycle (Total)
system.cpu.fetch.rateDist::4                        0      0.00%     84.21% # Number of instructions fetched each cycle (Total)
system.cpu.fetch.rateDist::5                        0      0.00%     84.21% # Number of instructions fetched each cycle (Total)
[...]
system.switch_cpus_1.iq.fu_busy_rate         0.028111                       # FU busy rate (busy events/executed inst)
system.switch_cpus_1.iq.int_inst_queue_reads    609867558                       # Number of integer instruction queue reads
system.switch_cpus_1.iq.int_inst_queue_writes    312300576                       # Number of integer instruction queue writes
system.switch_cpus_1.iq.int_inst_queue_wakeup_accesses    229039212                       # Number of integer instruction queue wakeup accesses
system.switch_cpus_1.iq.fp_inst_queue_reads      2435863                       # Number of floating instruction queue reads
system.switch_cpus_1.iq.fp_inst_queue_writes      1228128                       # Number of floating instruction queue writes
system.switch_cpus_1.iq.fp_inst_queue_wakeup_accesses      1200316                       # Number of floating instruction queue wakeup accesses
system.switch_cpus_1.iq.int_alu_accesses    242337713                       # Number of integer alu accesses
system.switch_cpus_1.iq.fp_alu_accesses       1226886                       # Number of floating point alu accesses
system.switch_cpus_1.iew.lsq.thread0.forwLoads      1372638                       # Number of loads that had data forwarded from stores
system.switch_cpus_1.iew.lsq.thread0.invAddrLoads            0                       # Number of loads ignored due to an invalid address
system.switch_cpus_1.iew.lsq.thread0.squashedLoads     12952128                       # Number of loads squashed
system.switch_cpus_1.iew.lsq.thread0.ignoredResponses         9880                       # Number of memory responses ignored because the instruction is squashed
system.switch_cpus_1.iew.lsq.thread0.memOrderViolation        11259                       # Number of memory ordering violations
system.switch_cpus_1.iew.lsq.thread0.squashedStores      3887720                       # Number of stores squashed
system.switch_cpus_1.iew.lsq.thread0.invAddrSwpfs            0                       # Number of software prefetches ignored due to an invalid address
system.switch_cpus_1.iew.lsq.thread0.blockedLoads            0                       # Number of blocked loads due to partial load-store forwarding
system.switch_cpus_1.iew.lsq.thread0.rescheduledLoads            0                       # Number of loads that were rescheduled
system.switch_cpus_1.iew.lsq.thread0.cacheBlocked         3779                       # Number of times an access to memory failed due to the cache being blocked
system.switch_cpus_1.iew.iewIdleCycles              0                       # Number of cycles IEW is idle
system.switch_cpus_1.iew.iewSquashCycles      2465685                       # Number of cycles IEW is squashing
system.switch_cpus_1.iew.iewBlockCycles       5773118                       # Number of cycles IEW is blocking
system.switch_cpus_1.iew.iewUnblockCycles      2197818                       # Number of cycles IEW is unblocking
system.switch_cpus_1.iew.iewDispatchedInsts    261093841                       # Number of instructions dispatched to IQ
system.switch_cpus_1.iew.iewDispSquashedInsts       980874                       # Number of squashed instructions skipped by dispatch
system.switch_cpus_1.iew.iewDispLoadInsts     61784573                       # Number of dispatched load instructions
system.switch_cpus_1.iew.iewDispStoreInsts     20266295                       # Number of dispatched store instructions
system.switch_cpus_1.iew.iewDispNonSpecInsts            0                       # Number of dispatched non-speculative instructions
system.switch_cpus_1.iew.iewIQFullEvents         5542                       # Number of times the IQ has become full, causing a stall
system.switch_cpus_1.iew.iewLSQFullEvents      2199540                       # Number of times the LSQ has become full, causing a stall
system.switch_cpus_1.iew.memOrderViolationEvents        11259                       # Number of memory order violations
system.switch_cpus_1.iew.predictedTakenIncorrect      1437823                       # Number of branches that were predicted taken incorrectly
system.switch_cpus_1.iew.predictedNotTakenIncorrect      1362460                       # Number of branches that were predicted not taken incorrectly
system.switch_cpus_1.iew.branchMispredicts      2800283                       # Number of branch mispredicts detected at execute
system.switch_cpus_1.iew.iewExecutedInsts    233407414                       # Number of executed instructions
system.switch_cpus_1.iew.iewExecLoadInsts     57732440                       # Number of load instructions executed
system.switch_cpus_1.iew.iewExecSquashedInsts      3651976                       # Number of squashed instructions skipped in execute
system.switch_cpus_1.iew.exec_swp                   0                       # number of swp insts executed
system.switch_cpus_1.iew.exec_nop             4334991                       # number of nop insts executed
system.switch_cpus_1.iew.exec_refs           76410773                       # number of memory reference insts executed
system.switch_cpus_1.iew.exec_branches       41314147                       # Number of branches executed
system.switch_cpus_1.iew.exec_stores         18678333                       # Number of stores executed
system.switch_cpus_1.iew.exec_rate           1.774472                       # Inst execution rate
system.switch_cpus_1.iew.wb_sent            231530688                       # cumulative count of insts sent to commit
system.switch_cpus_1.iew.wb_count           230239528                       # cumulative count of insts written-back
system.switch_cpus_1.iew.wb_producers       142119012                       # num instructions producing a value
system.switch_cpus_1.iew.wb_consumers       181360875                       # num instructions consuming a value
system.switch_cpus_1.iew.wb_rate             1.750388                       # insts written-back per cycle
system.switch_cpus_1.iew.wb_fanout           0.783626                       # average fanout of values written-back
system.switch_cpus_1.commit.commitSquashedInsts     53851736                       # The number of squashed insts skipped by commit
system.switch_cpus_1.commit.branchMispredicts      2335496                       # The number of times a branch was mispredicted
system.switch_cpus_1.commit.committed_per_cycle::samples    123016093                       # Number of insts commited each cycle
system.switch_cpus_1.commit.committed_per_cycle::mean     1.653180                       # Number of insts commited each cycle
system.switch_cpus_1.commit.committed_per_cycle::stdev     2.520460                       # Number of insts commited each cycle
system.switch_cpus_1.commit.committed_per_cycle::underflows            0      0.00%      0.00% # Number of insts commited each cycle
system.switch_cpus_1.commit.committed_per_cycle::0     63106925     51.30%     51.30% # Number of insts commited each cycle
system.switch_cpus_1.commit.committed_per_cycle::1     23507830     19.11%     70.41% # Number of insts commited each cycle
system.switch_cpus_1.commit.committed_per_cycle::2      9279489      7.54%     77.95% # Number of insts commited each cycle
system.switch_cpus_1.commit.committed_per_cycle::3      3802849      3.09%     81.04% # Number of insts commited each cycle
system.switch_cpus_1.commit.committed_per_cycle::4      4264194      3.47%     84.51% # Number of insts commited each cycle
system.switch_cpus_1.commit.committed_per_cycle::5      4189546      3.41%     87.92% # Number of insts commited each cycle
system.switch_cpus_1.commit.committed_per_cycle::6      2004885      1.63%     89.55% # Number of insts commited each cycle
system.switch_cpus_1.commit.committed_per_cycle::7      3024448      2.46%     92.00% # Number of insts commited each cycle
system.switch_cpus_1.commit.committed_per_cycle::8      9835927      8.00%    100.00% # Number of insts commited each cycle
system.switch_cpus_1.commit.committed_per_cycle::overflows            0      0.00%    100.00% # Number of insts commited each cycle
system.switch_cpus_1.commit.committed_per_cycle::min_value            0                       # Number of insts commited each cycle
system.switch_cpus_1.commit.committed_per_cycle::max_value            8                       # Number of insts commited each cycle
system.switch_cpus_1.commit.committed_per_cycle::total    123016093                       # Number of insts commited each cycle
system.switch_cpus_1.commit.committedInsts    203367723                       # Number of instructions committed
system.switch_cpus_1.commit.committedOps    203367723                       # Number of ops (including micro ops) committed
system.switch_cpus_1.commit.swp_count               0                       # Number of s/w prefetches committed
system.switch_cpus_1.commit.refs             65211012                       # Number of memory references committed
system.switch_cpus_1.commit.loads            48832439                       # Number of loads committed
system.switch_cpus_1.commit.membars                 0                       # Number of memory barriers committed
system.switch_cpus_1.commit.branches         35849890                       # Number of branches committed
system.switch_cpus_1.commit.fp_insts          1191360                       # Number of committed floating point instructions.
system.switch_cpus_1.commit.int_insts       197171622                       # Number of committed integer instructions.
system.switch_cpus_1.commit.function_calls      1737440                       # Number of function calls committed.
system.switch_cpus_1.commit.op_class_0::No_OpClass      3526571      1.73%      1.73% # Class of committed instruction
system.switch_cpus_1.commit.op_class_0::IntAlu    133820732     65.80%     67.54% # Class of committed instruction
system.switch_cpus_1.commit.op_class_0::IntMult        94592      0.05%     67.58% # Class of committed instruction
system.switch_cpus_1.commit.op_class_0::IntDiv            0      0.00%     67.58% # Class of committed instruction
system.switch_cpus_1.commit.op_class_0::FloatAdd       397120      0.20%     67.78% # Class of committed instruction
system.switch_cpus_1.commit.op_class_0::FloatCmp            0      0.00%     67.78% # Class of committed instruction
system.switch_cpus_1.commit.op_class_0::FloatCvt       238272      0.12%     67.90% # Class of committed instruction
system.switch_cpus_1.commit.op_class_0::FloatMult            0      0.00%     67.90% # Class of committed instruction
system.switch_cpus_1.commit.op_class_0::FloatMultAcc            0      0.00%     67.90% # Class of committed instruction
system.switch_cpus_1.commit.op_class_0::FloatDiv        79424      0.04%     67.93% # Class of committed instruction
system.switch_cpus_1.commit.op_class_0::FloatMisc            0      0.00%     67.93% # Class of committed instruction
system.switch_cpus_1.commit.op_class_0::FloatSqrt            0      0.00%     67.93% # Class of committed instruction
system.switch_cpus_1.commit.op_class_0::SimdAdd            0      0.00%     67.93% # Class of committed instruction
system.switch_cpus_1.commit.op_class_0::SimdAddAcc            0      0.00%     67.93% # Class of committed instruction
system.switch_cpus_1.commit.op_class_0::SimdAlu            0      0.00%     67.93% # Class of committed instruction
system.switch_cpus_1.commit.op_class_0::SimdCmp            0      0.00%     67.93% # Class of committed instruction
system.switch_cpus_1.commit.op_class_0::SimdCvt            0      0.00%     67.93% # Class of committed instruction
system.switch_cpus_1.commit.op_class_0::SimdMisc            0      0.00%     67.93% # Class of committed instruction
system.switch_cpus_1.commit.op_class_0::SimdMult            0      0.00%     67.93% # Class of committed instruction
system.switch_cpus_1.commit.op_class_0::SimdMultAcc            0      0.00%     67.93% # Class of committed instruction
system.switch_cpus_1.commit.op_class_0::SimdShift            0      0.00%     67.93% # Class of committed instruction
system.switch_cpus_1.commit.op_class_0::SimdShiftAcc            0      0.00%     67.93% # Class of committed instruction
system.switch_cpus_1.commit.op_class_0::SimdSqrt            0      0.00%     67.93% # Class of committed instruction
system.switch_cpus_1.commit.op_class_0::SimdFloatAdd            0      0.00%     67.93% # Class of committed instruction
system.switch_cpus_1.commit.op_class_0::SimdFloatAlu            0      0.00%     67.93% # Class of committed instruction
system.switch_cpus_1.commit.op_class_0::SimdFloatCmp            0      0.00%     67.93% # Class of committed instruction
system.switch_cpus_1.commit.op_class_0::SimdFloatCvt            0      0.00%     67.93% # Class of committed instruction
system.switch_cpus_1.commit.op_class_0::SimdFloatDiv            0      0.00%     67.93% # Class of committed instruction
system.switch_cpus_1.commit.op_class_0::SimdFloatMisc            0      0.00%     67.93% # Class of committed instruction
system.switch_cpus_1.commit.op_class_0::SimdFloatMult            0      0.00%     67.93% # Class of committed instruction
system.switch_cpus_1.commit.op_class_0::SimdFloatMultAcc            0      0.00%     67.93% # Class of committed instruction
system.switch_cpus_1.commit.op_class_0::SimdFloatSqrt            0      0.00%     67.93% # Class of committed instruction
system.switch_cpus_1.commit.op_class_0::MemRead     48594167     23.89%     91.83% # Class of committed instruction
system.switch_cpus_1.commit.op_class_0::MemWrite     16140301      7.94%     99.77% # Class of committed instruction
system.switch_cpus_1.commit.op_class_0::FloatMemRead       238272      0.12%     99.88% # Class of committed instruction
system.switch_cpus_1.commit.op_class_0::FloatMemWrite       238272      0.12%    100.00% # Class of committed instruction
system.switch_cpus_1.commit.op_class_0::IprAccess            0      0.00%    100.00% # Class of committed instruction
system.switch_cpus_1.commit.op_class_0::InstPrefetch            0      0.00%    100.00% # Class of committed instruction
system.switch_cpus_1.commit.op_class_0::total    203367723                       # Class of committed instruction
system.switch_cpus_1.commit.bw_lim_events      9835927                       # number cycles where commit BW limit reached
system.switch_cpus_1.rob.rob_reads          368816953                       # The number of ROB reads
system.switch_cpus_1.rob.rob_writes         522681790                       # The number of ROB writes
system.switch_cpus_1.timesIdled                 74796                       # Number of times that the entire CPU went into an idle state and unscheduled itself
system.switch_cpus_1.idleCycles                352850                       # Total number of cycles that the CPU has spent unscheduled due to idling
system.switch_cpus_1.committedInsts         200000000                       # Number of Instructions Simulated
system.switch_cpus_1.committedOps           200000000                       # Number of Ops (including micro ops) Simulated
system.switch_cpus_1.cpi                     0.657681                       # CPI: Cycles Per Instruction
system.switch_cpus_1.cpi_total               0.657681                       # CPI: Total CPI of All Threads
system.switch_cpus_1.ipc                     1.520493                       # IPC: Instructions Per Cycle
system.switch_cpus_1.ipc_total               1.520493                       # IPC: Total IPC of All Threads
system.switch_cpus_1.int_regfile_reads      304048192                       # number of integer regfile reads
system.switch_cpus_1.int_regfile_writes     172427081                       # number of integer regfile writes
system.switch_cpus_1.fp_regfile_reads          807492                       # number of floating regfile reads
system.switch_cpus_1.fp_regfile_writes         794272                       # number of floating regfile writes
system.switch_cpus_1.misc_regfile_reads        158848                       # number of misc regfile reads
system.switch_cpus_1.misc_regfile_writes        79424                       # number of misc regfile writes
system.tol3bus.snoop_filter.tot_requests       709534                       # Total number of requests made to the snoop filter.
system.tol3bus.snoop_filter.hit_single_requests       352503                       # Number of requests hitting in the snoop filter with a single holder of the requested data.
system.tol3bus.snoop_filter.hit_multi_requests            0                       # Number of requests hitting in the snoop filter with multiple (>1) holders of the requested data.
system.tol3bus.snoop_filter.tot_snoops           2417                       # Total number of snoops made to the snoop filter.
system.tol3bus.snoop_filter.hit_single_snoops         2417                       # Number of snoops hitting in the snoop filter with a single holder of the requested data.
system.tol3bus.snoop_filter.hit_multi_snoops            0                       # Number of snoops hitting in the snoop filter with multiple (>1) holders of the requested data.
system.tol3bus.pwrStateResidencyTicks::UNDEFINED 400904033748912                       # Cumulative time (in ticks) in various power states
system.tol3bus.trans_dist::ReadResp            323773                       # Transaction distribution
system.tol3bus.trans_dist::WritebackDirty       449804                       # Transaction distribution
system.tol3bus.trans_dist::CleanEvict          144308                       # Transaction distribution
system.tol3bus.trans_dist::ReadExReq            33258                       # Transaction distribution
system.tol3bus.trans_dist::ReadExResp           33258                       # Transaction distribution
system.tol3bus.trans_dist::ReadSharedReq       323773                       # Transaction distribution
system.tol3bus.pkt_count_system.cpu.l2.mem_side::system.l3.cpu_side      1066565                       # Packet count per connected master and slave (bytes)
system.tol3bus.pkt_size_system.cpu.l2.mem_side::system.l3.cpu_side     39869824                       # Cumulative packet size per connected master and slave (bytes)
system.tol3bus.snoops                          241609                       # Total snoops (count)
system.tol3bus.snoopTraffic                  11767616                       # Total snoop traffic (bytes)
system.tol3bus.snoop_fanout::samples           598640                       # Request fanout histogram
system.tol3bus.snoop_fanout::mean            0.004037                       # Request fanout histogram
system.tol3bus.snoop_fanout::stdev           0.063413                       # Request fanout histogram
system.tol3bus.snoop_fanout::underflows             0      0.00%      0.00% # Request fanout histogram
system.tol3bus.snoop_fanout::0                 596223     99.60%     99.60% # Request fanout histogram
system.tol3bus.snoop_fanout::1                   2417      0.40%    100.00% # Request fanout histogram
system.tol3bus.snoop_fanout::overflows              0      0.00%    100.00% # Request fanout histogram
system.tol3bus.snoop_fanout::min_value              0                       # Request fanout histogram
system.tol3bus.snoop_fanout::max_value              1                       # Request fanout histogram
system.tol3bus.snoop_fanout::total             598640                       # Request fanout histogram
system.tol3bus.reqLayer0.occupancy          324831177                       # Layer occupancy (ticks)
system.tol3bus.reqLayer0.utilization              0.0                       # Layer utilization (%)
system.tol3bus.respLayer0.occupancy         237782646                       # Layer occupancy (ticks)
system.tol3bus.respLayer0.utilization             0.0                       # Layer utilization (%)

---------- End Simulation Statistics   ----------
