
---------- Begin Simulation Statistics ----------
sim_seconds                                  3.644819                       # Number of seconds simulated
sim_ticks                                3644819371161                       # Number of ticks simulated
final_tick                               130597815895893                       # Number of ticks from beginning of simulation (restored from checkpoints and never reset)
sim_freq                                 1000000000000                       # Frequency of simulated ticks
host_inst_rate                                 219184                       # Simulator instruction rate (inst/s)
host_op_rate                                   219184                       # Simulator op (including micro ops) rate (op/s)
host_tick_rate                              665738305                       # Simulator tick rate (ticks/s)
host_mem_usage                                2436252                       # Number of bytes of host memory used
host_seconds                                  5474.85                       # Real time elapsed on the host
sim_insts                                  1200000003                       # Number of instructions simulated
sim_ops                                    1200000003                       # Number of ops (including micro ops) simulated
system.voltage_domain.voltage                       1                       # Voltage in Volts
system.clk_domain.clock                          1000                       # Clock period in ticks
system.mem_ctrls0.pwrStateResidencyTicks::UNDEFINED 130597815895893                       # Cumulative time (in ticks) in various power states
system.mem_ctrls0.bytes_read::cpu.inst            128                       # Number of bytes read from this memory
system.mem_ctrls0.bytes_read::switch_cpus.inst       138368                       # Number of bytes read from this memory
system.mem_ctrls0.bytes_read::switch_cpus.data    386008896                       # Number of bytes read from this memory
system.mem_ctrls0.bytes_read::switch_cpus_1.inst        41856                       # Number of bytes read from this memory
system.mem_ctrls0.bytes_read::switch_cpus_1.data     87261120                       # Number of bytes read from this memory
system.mem_ctrls0.bytes_read::total         473450368                       # Number of bytes read from this memory
system.mem_ctrls0.bytes_inst_read::cpu.inst          128                       # Number of instructions bytes read from this memory
system.mem_ctrls0.bytes_inst_read::switch_cpus.inst       138368                       # Number of instructions bytes read from this memory
system.mem_ctrls0.bytes_inst_read::switch_cpus_1.inst        41856                       # Number of instructions bytes read from this memory
system.mem_ctrls0.bytes_inst_read::total       180352                       # Number of instructions bytes read from this memory
system.mem_ctrls0.bytes_written::writebacks    196388736                       # Number of bytes written to this memory
system.mem_ctrls0.bytes_written::total      196388736                       # Number of bytes written to this memory
system.mem_ctrls0.num_reads::cpu.inst               2                       # Number of read requests responded to by this memory
system.mem_ctrls0.num_reads::switch_cpus.inst         2162                       # Number of read requests responded to by this memory
system.mem_ctrls0.num_reads::switch_cpus.data      6031389                       # Number of read requests responded to by this memory
system.mem_ctrls0.num_reads::switch_cpus_1.inst          654                       # Number of read requests responded to by this memory
system.mem_ctrls0.num_reads::switch_cpus_1.data      1363455                       # Number of read requests responded to by this memory
system.mem_ctrls0.num_reads::total            7397662                       # Number of read requests responded to by this memory
system.mem_ctrls0.num_writes::writebacks      3068574                       # Number of write requests responded to by this memory
system.mem_ctrls0.num_writes::total           3068574                       # Number of write requests responded to by this memory
system.mem_ctrls0.bw_read::cpu.inst                35                       # Total read bandwidth from this memory (bytes/s)
system.mem_ctrls0.bw_read::switch_cpus.inst        37963                       # Total read bandwidth from this memory (bytes/s)
system.mem_ctrls0.bw_read::switch_cpus.data    105906180                       # Total read bandwidth from this memory (bytes/s)
system.mem_ctrls0.bw_read::switch_cpus_1.inst        11484                       # Total read bandwidth from this memory (bytes/s)
system.mem_ctrls0.bw_read::switch_cpus_1.data     23941137                       # Total read bandwidth from this memory (bytes/s)
system.mem_ctrls0.bw_read::total            129896799                       # Total read bandwidth from this memory (bytes/s)
system.mem_ctrls0.bw_inst_read::cpu.inst           35                       # Instruction read bandwidth from this memory (bytes/s)
system.mem_ctrls0.bw_inst_read::switch_cpus.inst        37963                       # Instruction read bandwidth from this memory (bytes/s)
system.mem_ctrls0.bw_inst_read::switch_cpus_1.inst        11484                       # Instruction read bandwidth from this memory (bytes/s)
system.mem_ctrls0.bw_inst_read::total           49482                       # Instruction read bandwidth from this memory (bytes/s)
system.mem_ctrls0.bw_write::writebacks       53881610                       # Write bandwidth from this memory (bytes/s)
system.mem_ctrls0.bw_write::total            53881610                       # Write bandwidth from this memory (bytes/s)
system.mem_ctrls0.bw_total::writebacks       53881610                       # Total bandwidth to/from this memory (bytes/s)
system.mem_ctrls0.bw_total::cpu.inst               35                       # Total bandwidth to/from this memory (bytes/s)
system.mem_ctrls0.bw_total::switch_cpus.inst        37963                       # Total bandwidth to/from this memory (bytes/s)
system.mem_ctrls0.bw_total::switch_cpus.data    105906180                       # Total bandwidth to/from this memory (bytes/s)
system.mem_ctrls0.bw_total::switch_cpus_1.inst        11484                       # Total bandwidth to/from this memory (bytes/s)
system.mem_ctrls0.bw_total::switch_cpus_1.data     23941137                       # Total bandwidth to/from this memory (bytes/s)
system.mem_ctrls0.bw_total::total           183778409                       # Total bandwidth to/from this memory (bytes/s)
system.mem_ctrls0.readReqs                    7397662                       # Number of read requests accepted
system.mem_ctrls0.writeReqs                   3068574                       # Number of write requests accepted
system.mem_ctrls0.readBursts                  7397662                       # Number of DRAM read bursts, including those serviced by the write queue
system.mem_ctrls0.writeBursts                 3068574                       # Number of DRAM write bursts, including those merged in the write queue
system.mem_ctrls0.bytesReadDRAM             473175808                       # Total number of bytes read from DRAM
system.mem_ctrls0.bytesReadWrQ                 274560                       # Total number of bytes read from write queue
system.mem_ctrls0.bytesWritten              196387776                       # Total number of bytes written to DRAM
system.mem_ctrls0.bytesReadSys              473450368                       # Total read bytes from the system interface side
system.mem_ctrls0.bytesWrittenSys           196388736                       # Total written bytes from the system interface side
system.mem_ctrls0.servicedByWrQ                  4290                       # Number of DRAM read bursts serviced by the write queue
system.mem_ctrls0.mergedWrBursts                    0                       # Number of DRAM write bursts merged with an existing one
system.mem_ctrls0.neitherReadNorWriteReqs            0                       # Number of requests that are neither read nor write
system.mem_ctrls0.perBankRdBursts::0           458238                       # Per bank write bursts
system.mem_ctrls0.perBankRdBursts::1           470113                       # Per bank write bursts
system.mem_ctrls0.perBankRdBursts::2           466534                       # Per bank write bursts
system.mem_ctrls0.perBankRdBursts::3           447171                       # Per bank write bursts
system.mem_ctrls0.perBankRdBursts::4           447599                       # Per bank write bursts
system.mem_ctrls0.perBankRdBursts::5           467067                       # Per bank write bursts
system.mem_ctrls0.perBankRdBursts::6           475691                       # Per bank write bursts
system.mem_ctrls0.perBankRdBursts::7           473505                       # Per bank write bursts
system.mem_ctrls0.perBankRdBursts::8           484938                       # Per bank write bursts
system.mem_ctrls0.perBankRdBursts::9           464934                       # Per bank write bursts
system.mem_ctrls0.perBankRdBursts::10          448054                       # Per bank write bursts
system.mem_ctrls0.perBankRdBursts::11          446927                       # Per bank write bursts
system.mem_ctrls0.perBankRdBursts::12          445877                       # Per bank write bursts
system.mem_ctrls0.perBankRdBursts::13          467692                       # Per bank write bursts
system.mem_ctrls0.perBankRdBursts::14          467449                       # Per bank write bursts
system.mem_ctrls0.perBankRdBursts::15          461583                       # Per bank write bursts
system.mem_ctrls0.perBankWrBursts::0           191543                       # Per bank write bursts
system.mem_ctrls0.perBankWrBursts::1           191237                       # Per bank write bursts
system.mem_ctrls0.perBankWrBursts::2           195021                       # Per bank write bursts
system.mem_ctrls0.perBankWrBursts::3           182555                       # Per bank write bursts
system.mem_ctrls0.perBankWrBursts::4           184718                       # Per bank write bursts
system.mem_ctrls0.perBankWrBursts::5           194200                       # Per bank write bursts
system.mem_ctrls0.perBankWrBursts::6           201205                       # Per bank write bursts
system.mem_ctrls0.perBankWrBursts::7           199363                       # Per bank write bursts
system.mem_ctrls0.perBankWrBursts::8           201227                       # Per bank write bursts
system.mem_ctrls0.perBankWrBursts::9           190252                       # Per bank write bursts
system.mem_ctrls0.perBankWrBursts::10          188090                       # Per bank write bursts
system.mem_ctrls0.perBankWrBursts::11          189330                       # Per bank write bursts
system.mem_ctrls0.perBankWrBursts::12          181833                       # Per bank write bursts
system.mem_ctrls0.perBankWrBursts::13          192319                       # Per bank write bursts
system.mem_ctrls0.perBankWrBursts::14          196083                       # Per bank write bursts
system.mem_ctrls0.perBankWrBursts::15          189583                       # Per bank write bursts
system.mem_ctrls0.numRdRetry                        0                       # Number of times read queue was full causing retry
system.mem_ctrls0.numWrRetry                        0                       # Number of times write queue was full causing retry
system.mem_ctrls0.totGap                 3644819192007                       # Total gap between requests
system.mem_ctrls0.readPktSize::0                    0                       # Read request sizes (log2)
system.mem_ctrls0.readPktSize::1                    0                       # Read request sizes (log2)
system.mem_ctrls0.readPktSize::2                    0                       # Read request sizes (log2)
system.mem_ctrls0.readPktSize::3                    0                       # Read request sizes (log2)
system.mem_ctrls0.readPktSize::4                    0                       # Read request sizes (log2)
system.mem_ctrls0.readPktSize::5                    0                       # Read request sizes (log2)
system.mem_ctrls0.readPktSize::6              7397662                       # Read request sizes (log2)
system.mem_ctrls0.writePktSize::0                   0                       # Write request sizes (log2)
system.mem_ctrls0.writePktSize::1                   0                       # Write request sizes (log2)
system.mem_ctrls0.writePktSize::2                   0                       # Write request sizes (log2)
system.mem_ctrls0.writePktSize::3                   0                       # Write request sizes (log2)
system.mem_ctrls0.writePktSize::4                   0                       # Write request sizes (log2)
system.mem_ctrls0.writePktSize::5                   0                       # Write request sizes (log2)
system.mem_ctrls0.writePktSize::6             3068574                       # Write request sizes (log2)
system.mem_ctrls0.rdQLenPdf::0                7126829                       # What read queue length does an incoming req see
system.mem_ctrls0.rdQLenPdf::1                 238632                       # What read queue length does an incoming req see
system.mem_ctrls0.rdQLenPdf::2                  26289                       # What read queue length does an incoming req see
system.mem_ctrls0.rdQLenPdf::3                   1622                       # What read queue length does an incoming req see
system.mem_ctrls0.rdQLenPdf::4                      0                       # What read queue length does an incoming req see
system.mem_ctrls0.rdQLenPdf::5                      0                       # What read queue length does an incoming req see
system.mem_ctrls0.rdQLenPdf::6                      0                       # What read queue length does an incoming req see
system.mem_ctrls0.rdQLenPdf::7                      0                       # What read queue length does an incoming req see
system.mem_ctrls0.rdQLenPdf::8                      0                       # What read queue length does an incoming req see
system.mem_ctrls0.rdQLenPdf::9                      0                       # What read queue length does an incoming req see
system.mem_ctrls0.rdQLenPdf::10                     0                       # What read queue length does an incoming req see
system.mem_ctrls0.rdQLenPdf::11                     0                       # What read queue length does an incoming req see
system.mem_ctrls0.rdQLenPdf::12                     0                       # What read queue length does an incoming req see
system.mem_ctrls0.rdQLenPdf::13                     0                       # What read queue length does an incoming req see
system.mem_ctrls0.rdQLenPdf::14                     0                       # What read queue length does an incoming req see
system.mem_ctrls0.rdQLenPdf::15                     0                       # What read queue length does an incoming req see
system.mem_ctrls0.rdQLenPdf::16                     0                       # What read queue length does an incoming req see
system.mem_ctrls0.rdQLenPdf::17                     0                       # What read queue length does an incoming req see
system.mem_ctrls0.rdQLenPdf::18                     0                       # What read queue length does an incoming req see
system.mem_ctrls0.rdQLenPdf::19                     0                       # What read queue length does an incoming req see
system.mem_ctrls0.rdQLenPdf::20                     0                       # What read queue length does an incoming req see
system.mem_ctrls0.rdQLenPdf::21                     0                       # What read queue length does an incoming req see
system.mem_ctrls0.rdQLenPdf::22                     0                       # What read queue length does an incoming req see
system.mem_ctrls0.rdQLenPdf::23                     0                       # What read queue length does an incoming req see
system.mem_ctrls0.rdQLenPdf::24                     0                       # What read queue length does an incoming req see
system.mem_ctrls0.rdQLenPdf::25                     0                       # What read queue length does an incoming req see
system.mem_ctrls0.rdQLenPdf::26                     0                       # What read queue length does an incoming req see
system.mem_ctrls0.rdQLenPdf::27                     0                       # What read queue length does an incoming req see
system.mem_ctrls0.rdQLenPdf::28                     0                       # What read queue length does an incoming req see
system.mem_ctrls0.rdQLenPdf::29                     0                       # What read queue length does an incoming req see
system.mem_ctrls0.rdQLenPdf::30                     0                       # What read queue length does an incoming req see
system.mem_ctrls0.rdQLenPdf::31                     0                       # What read queue length does an incoming req see
system.mem_ctrls0.wrQLenPdf::0                      2                       # What write queue length does an incoming req see
system.mem_ctrls0.wrQLenPdf::1                      2                       # What write queue length does an incoming req see
system.mem_ctrls0.wrQLenPdf::2                      2                       # What write queue length does an incoming req see
system.mem_ctrls0.wrQLenPdf::3                      2                       # What write queue length does an incoming req see
system.mem_ctrls0.wrQLenPdf::4                      2                       # What write queue length does an incoming req see
system.mem_ctrls0.wrQLenPdf::5                      2                       # What write queue length does an incoming req see
system.mem_ctrls0.wrQLenPdf::6                      2                       # What write queue length does an incoming req see
system.mem_ctrls0.wrQLenPdf::7                      2                       # What write queue length does an incoming req see
system.mem_ctrls0.wrQLenPdf::8                      2                       # What write queue length does an incoming req see
system.mem_ctrls0.wrQLenPdf::9                      2                       # What write queue length does an incoming req see
system.mem_ctrls0.wrQLenPdf::10                     2                       # What write queue length does an incoming req see
system.mem_ctrls0.wrQLenPdf::11                     2                       # What write queue length does an incoming req see
system.mem_ctrls0.wrQLenPdf::12                     2                       # What write queue length does an incoming req see
system.mem_ctrls0.wrQLenPdf::13                     2                       # What write queue length does an incoming req see
system.mem_ctrls0.wrQLenPdf::14                     2                       # What write queue length does an incoming req see
system.mem_ctrls0.wrQLenPdf::15                150841                       # What write queue length does an incoming req see
system.mem_ctrls0.wrQLenPdf::16                155630                       # What write queue length does an incoming req see
system.mem_ctrls0.wrQLenPdf::17                171577                       # What write queue length does an incoming req see
system.mem_ctrls0.wrQLenPdf::18                172423                       # What write queue length does an incoming req see
system.mem_ctrls0.wrQLenPdf::19                172468                       # What write queue length does an incoming req see
system.mem_ctrls0.wrQLenPdf::20                172493                       # What write queue length does an incoming req see
system.mem_ctrls0.wrQLenPdf::21                172494                       # What write queue length does an incoming req see
system.mem_ctrls0.wrQLenPdf::22                172806                       # What write queue length does an incoming req see
system.mem_ctrls0.wrQLenPdf::23                174411                       # What write queue length does an incoming req see
system.mem_ctrls0.wrQLenPdf::24                172701                       # What write queue length does an incoming req see
system.mem_ctrls0.wrQLenPdf::25                172515                       # What write queue length does an incoming req see
system.mem_ctrls0.wrQLenPdf::26                172467                       # What write queue length does an incoming req see
system.mem_ctrls0.wrQLenPdf::27                172456                       # What write queue length does an incoming req see
system.mem_ctrls0.wrQLenPdf::28                172472                       # What write queue length does an incoming req see
system.mem_ctrls0.wrQLenPdf::29                172682                       # What write queue length does an incoming req see
system.mem_ctrls0.wrQLenPdf::30                173605                       # What write queue length does an incoming req see
system.mem_ctrls0.wrQLenPdf::31                172233                       # What write queue length does an incoming req see
system.mem_ctrls0.wrQLenPdf::32                172221                       # What write queue length does an incoming req see
system.mem_ctrls0.wrQLenPdf::33                    45                       # What write queue length does an incoming req see
system.mem_ctrls0.wrQLenPdf::34                     2                       # What write queue length does an incoming req see
system.mem_ctrls0.wrQLenPdf::35                     2                       # What write queue length does an incoming req see
system.mem_ctrls0.wrQLenPdf::36                     0                       # What write queue length does an incoming req see
system.mem_ctrls0.wrQLenPdf::37                     0                       # What write queue length does an incoming req see
system.mem_ctrls0.wrQLenPdf::38                     0                       # What write queue length does an incoming req see
system.mem_ctrls0.wrQLenPdf::39                     0                       # What write queue length does an incoming req see
system.mem_ctrls0.wrQLenPdf::40                     0                       # What write queue length does an incoming req see
system.mem_ctrls0.wrQLenPdf::41                     0                       # What write queue length does an incoming req see
system.mem_ctrls0.wrQLenPdf::42                     0                       # What write queue length does an incoming req see
system.mem_ctrls0.wrQLenPdf::43                     0                       # What write queue length does an incoming req see
system.mem_ctrls0.wrQLenPdf::44                     0                       # What write queue length does an incoming req see
system.mem_ctrls0.wrQLenPdf::45                     0                       # What write queue length does an incoming req see
system.mem_ctrls0.wrQLenPdf::46                     0                       # What write queue length does an incoming req see
system.mem_ctrls0.wrQLenPdf::47                     0                       # What write queue length does an incoming req see
system.mem_ctrls0.wrQLenPdf::48                     0                       # What write queue length does an incoming req see
system.mem_ctrls0.wrQLenPdf::49                     0                       # What write queue length does an incoming req see
system.mem_ctrls0.wrQLenPdf::50                     0                       # What write queue length does an incoming req see
system.mem_ctrls0.wrQLenPdf::51                     0                       # What write queue length does an incoming req see
system.mem_ctrls0.wrQLenPdf::52                     0                       # What write queue length does an incoming req see
system.mem_ctrls0.wrQLenPdf::53                     0                       # What write queue length does an incoming req see
system.mem_ctrls0.wrQLenPdf::54                     0                       # What write queue length does an incoming req see
system.mem_ctrls0.wrQLenPdf::55                     0                       # What write queue length does an incoming req see
system.mem_ctrls0.wrQLenPdf::56                     0                       # What write queue length does an incoming req see
system.mem_ctrls0.wrQLenPdf::57                     0                       # What write queue length does an incoming req see
system.mem_ctrls0.wrQLenPdf::58                     0                       # What write queue length does an incoming req see
system.mem_ctrls0.wrQLenPdf::59                     0                       # What write queue length does an incoming req see
system.mem_ctrls0.wrQLenPdf::60                     0                       # What write queue length does an incoming req see
system.mem_ctrls0.wrQLenPdf::61                     0                       # What write queue length does an incoming req see
system.mem_ctrls0.wrQLenPdf::62                     0                       # What write queue length does an incoming req see
system.mem_ctrls0.wrQLenPdf::63                     0                       # What write queue length does an incoming req see
system.mem_ctrls0.bytesPerActivate::samples      6740195                       # Bytes accessed per row activation
system.mem_ctrls0.bytesPerActivate::mean    99.338800                       # Bytes accessed per row activation
system.mem_ctrls0.bytesPerActivate::gmean    82.748500                       # Bytes accessed per row activation
system.mem_ctrls0.bytesPerActivate::stdev    88.451835                       # Bytes accessed per row activation
system.mem_ctrls0.bytesPerActivate::0-127      5113339     75.86%     75.86% # Bytes accessed per row activation
system.mem_ctrls0.bytesPerActivate::128-255      1167371     17.32%     93.18% # Bytes accessed per row activation
system.mem_ctrls0.bytesPerActivate::256-383       260948      3.87%     97.05% # Bytes accessed per row activation
system.mem_ctrls0.bytesPerActivate::384-511       114738      1.70%     98.76% # Bytes accessed per row activation
system.mem_ctrls0.bytesPerActivate::512-639        53895      0.80%     99.56% # Bytes accessed per row activation
system.mem_ctrls0.bytesPerActivate::640-767        19081      0.28%     99.84% # Bytes accessed per row activation
system.mem_ctrls0.bytesPerActivate::768-895         6448      0.10%     99.94% # Bytes accessed per row activation
system.mem_ctrls0.bytesPerActivate::896-1023         2566      0.04%     99.97% # Bytes accessed per row activation
system.mem_ctrls0.bytesPerActivate::1024-1151         1809      0.03%    100.00% # Bytes accessed per row activation
system.mem_ctrls0.bytesPerActivate::total      6740195                       # Bytes accessed per row activation
system.mem_ctrls0.rdPerTurnAround::samples       172212                       # Reads before turning the bus around for writes
system.mem_ctrls0.rdPerTurnAround::mean     42.931759                       # Reads before turning the bus around for writes
system.mem_ctrls0.rdPerTurnAround::gmean    41.231030                       # Reads before turning the bus around for writes
system.mem_ctrls0.rdPerTurnAround::stdev    57.532270                       # Reads before turning the bus around for writes
system.mem_ctrls0.rdPerTurnAround::0-1023       172210    100.00%    100.00% # Reads before turning the bus around for writes
system.mem_ctrls0.rdPerTurnAround::1024-2047            1      0.00%    100.00% # Reads before turning the bus around for writes
system.mem_ctrls0.rdPerTurnAround::22528-23551            1      0.00%    100.00% # Reads before turning the bus around for writes
system.mem_ctrls0.rdPerTurnAround::total       172212                       # Reads before turning the bus around for writes
system.mem_ctrls0.wrPerTurnAround::samples       172212                       # Writes before turning the bus around for reads
system.mem_ctrls0.wrPerTurnAround::mean     17.818497                       # Writes before turning the bus around for reads
system.mem_ctrls0.wrPerTurnAround::gmean    17.806177                       # Writes before turning the bus around for reads
system.mem_ctrls0.wrPerTurnAround::stdev     0.646734                       # Writes before turning the bus around for reads
system.mem_ctrls0.wrPerTurnAround::16           16598      9.64%      9.64% # Writes before turning the bus around for reads
system.mem_ctrls0.wrPerTurnAround::17            4276      2.48%     12.12% # Writes before turning the bus around for reads
system.mem_ctrls0.wrPerTurnAround::18          145450     84.46%     96.58% # Writes before turning the bus around for reads
system.mem_ctrls0.wrPerTurnAround::19            5595      3.25%     99.83% # Writes before turning the bus around for reads
system.mem_ctrls0.wrPerTurnAround::20             272      0.16%     99.99% # Writes before turning the bus around for reads
system.mem_ctrls0.wrPerTurnAround::21              16      0.01%    100.00% # Writes before turning the bus around for reads
system.mem_ctrls0.wrPerTurnAround::22               4      0.00%    100.00% # Writes before turning the bus around for reads
system.mem_ctrls0.wrPerTurnAround::30               1      0.00%    100.00% # Writes before turning the bus around for reads
system.mem_ctrls0.wrPerTurnAround::total       172212                       # Writes before turning the bus around for reads
system.mem_ctrls0.totQLat                157762122182                       # Total ticks spent queuing
system.mem_ctrls0.totMemAccLat           296387847182                       # Total ticks spent from burst creation until serviced by the DRAM
system.mem_ctrls0.totBusLat               36966860000                       # Total ticks spent in databus transfers
system.mem_ctrls0.avgQLat                    21338.32                       # Average queueing delay per DRAM burst
system.mem_ctrls0.avgBusLat                   5000.00                       # Average bus latency per DRAM burst
system.mem_ctrls0.avgMemAccLat               40088.32                       # Average memory access latency per DRAM burst
system.mem_ctrls0.avgRdBW                      129.82                       # Average DRAM read bandwidth in MiByte/s
system.mem_ctrls0.avgWrBW                       53.88                       # Average achieved write bandwidth in MiByte/s
system.mem_ctrls0.avgRdBWSys                   129.90                       # Average system read bandwidth in MiByte/s
system.mem_ctrls0.avgWrBWSys                    53.88                       # Average system write bandwidth in MiByte/s
system.mem_ctrls0.peakBW                     12800.00                       # Theoretical peak bandwidth in MiByte/s
system.mem_ctrls0.busUtil                        1.44                       # Data bus utilization in percentage
system.mem_ctrls0.busUtilRead                    1.01                       # Data bus utilization in percentage for reads
system.mem_ctrls0.busUtilWrite                   0.42                       # Data bus utilization in percentage for writes
system.mem_ctrls0.avgRdQLen                      1.02                       # Average read queue length when enqueuing
system.mem_ctrls0.avgWrQLen                     24.53                       # Average write queue length when enqueuing
system.mem_ctrls0.readRowHits                 3670203                       # Number of row buffer hits during reads
system.mem_ctrls0.writeRowHits                  51527                       # Number of row buffer hits during writes
system.mem_ctrls0.readRowHitRate                49.64                       # Row buffer hit rate for reads
system.mem_ctrls0.writeRowHitRate                1.68                       # Row buffer hit rate for writes
system.mem_ctrls0.avgGap                    348245.46                       # Average gap between requests
system.mem_ctrls0.pageHitRate                   35.57                       # Row buffer hit rate, read and write combined
system.mem_ctrls0_0.actEnergy             24095750700                       # Energy for activate commands per rank (pJ)
system.mem_ctrls0_0.preEnergy             12807180045                       # Energy for precharge commands per rank (pJ)
system.mem_ctrls0_0.readEnergy            26460254520                       # Energy for read commands per rank (pJ)
system.mem_ctrls0_0.writeEnergy            8037975240                       # Energy for write commands per rank (pJ)
system.mem_ctrls0_0.refreshEnergy        289700115120.000061                       # Energy for refresh commands per rank (pJ)
system.mem_ctrls0_0.actBackEnergy        191081875200                       # Energy for active background per rank (pJ)
system.mem_ctrls0_0.preBackEnergy          7244131680                       # Energy for precharge background per rank (pJ)
system.mem_ctrls0_0.actPowerDownEnergy   1203964985040                       # Energy for active power-down per rank (pJ)
system.mem_ctrls0_0.prePowerDownEnergy   197817603840                       # Energy for precharge power-down per rank (pJ)
system.mem_ctrls0_0.selfRefreshEnergy     18203230590                       # Energy for self refresh per rank (pJ)
system.mem_ctrls0_0.totalEnergy          1979459250615                       # Total energy per rank (pJ)
system.mem_ctrls0_0.averagePower           543.088431                       # Core power per rank (mW)
system.mem_ctrls0_0.totalIdleTime        3206815432509                       # Total Idle time Per DRAM Rank
system.mem_ctrls0_0.memoryStateTime::IDLE   5456654686                       # Time in different power states
system.mem_ctrls0_0.memoryStateTime::REF 122614176000                       # Time in different power states
system.mem_ctrls0_0.memoryStateTime::SREF  51388523920                       # Time in different power states
system.mem_ctrls0_0.memoryStateTime::PRE_PDN 515152581527                       # Time in different power states
system.mem_ctrls0_0.memoryStateTime::ACT 309932040476                       # Time in different power states
system.mem_ctrls0_0.memoryStateTime::ACT_PDN 2640275394552                       # Time in different power states
system.mem_ctrls0_1.actEnergy             24029284440                       # Energy for activate commands per rank (pJ)
system.mem_ctrls0_1.preEnergy             12771859980                       # Energy for precharge commands per rank (pJ)
system.mem_ctrls0_1.readEnergy            26328421560                       # Energy for read commands per rank (pJ)
system.mem_ctrls0_1.writeEnergy            7979902740                       # Energy for write commands per rank (pJ)
system.mem_ctrls0_1.refreshEnergy        289704417600.000061                       # Energy for refresh commands per rank (pJ)
system.mem_ctrls0_1.actBackEnergy        191398773540                       # Energy for active background per rank (pJ)
system.mem_ctrls0_1.preBackEnergy          7255773120                       # Energy for precharge background per rank (pJ)
system.mem_ctrls0_1.actPowerDownEnergy   1201278613800                       # Energy for active power-down per rank (pJ)
system.mem_ctrls0_1.prePowerDownEnergy   199330175520                       # Energy for precharge power-down per rank (pJ)
system.mem_ctrls0_1.selfRefreshEnergy     18595612155                       # Energy for self refresh per rank (pJ)
system.mem_ctrls0_1.totalEnergy          1978719849105                       # Total energy per rank (pJ)
system.mem_ctrls0_1.averagePower           542.885568                       # Core power per rank (mW)
system.mem_ctrls0_1.totalIdleTime        3206095492804                       # Total Idle time Per DRAM Rank
system.mem_ctrls0_1.memoryStateTime::IDLE   5509456787                       # Time in different power states
system.mem_ctrls0_1.memoryStateTime::REF 122617256000                       # Time in different power states
system.mem_ctrls0_1.memoryStateTime::SREF  52613529299                       # Time in different power states
system.mem_ctrls0_1.memoryStateTime::PRE_PDN 519087022065                       # Time in different power states
system.mem_ctrls0_1.memoryStateTime::ACT 310597026151                       # Time in different power states
system.mem_ctrls0_1.memoryStateTime::ACT_PDN 2634395080859                       # Time in different power states
system.mem_ctrls1.pwrStateResidencyTicks::UNDEFINED 130597815895893                       # Cumulative time (in ticks) in various power states
system.mem_ctrls1.bytes_read::cpu.data            128                       # Number of bytes read from this memory
system.mem_ctrls1.bytes_read::switch_cpus.inst       121728                       # Number of bytes read from this memory
system.mem_ctrls1.bytes_read::switch_cpus.data    386815872                       # Number of bytes read from this memory
system.mem_ctrls1.bytes_read::switch_cpus_1.inst        40576                       # Number of bytes read from this memory
system.mem_ctrls1.bytes_read::switch_cpus_1.data     87380672                       # Number of bytes read from this memory
system.mem_ctrls1.bytes_read::total         474358976                       # Number of bytes read from this memory
system.mem_ctrls1.bytes_inst_read::switch_cpus.inst       121728                       # Number of instructions bytes read from this memory
system.mem_ctrls1.bytes_inst_read::switch_cpus_1.inst        40576                       # Number of instructions bytes read from this memory
system.mem_ctrls1.bytes_inst_read::total       162304                       # Number of instructions bytes read from this memory
system.mem_ctrls1.bytes_written::writebacks    195937280                       # Number of bytes written to this memory
system.mem_ctrls1.bytes_written::total      195937280                       # Number of bytes written to this memory
system.mem_ctrls1.num_reads::cpu.data               2                       # Number of read requests responded to by this memory
system.mem_ctrls1.num_reads::switch_cpus.inst         1902                       # Number of read requests responded to by this memory
system.mem_ctrls1.num_reads::switch_cpus.data      6043998                       # Number of read requests responded to by this memory
system.mem_ctrls1.num_reads::switch_cpus_1.inst          634                       # Number of read requests responded to by this memory
system.mem_ctrls1.num_reads::switch_cpus_1.data      1365323                       # Number of read requests responded to by this memory
system.mem_ctrls1.num_reads::total            7411859                       # Number of read requests responded to by this memory
system.mem_ctrls1.num_writes::writebacks      3061520                       # Number of write requests responded to by this memory
system.mem_ctrls1.num_writes::total           3061520                       # Number of write requests responded to by this memory
system.mem_ctrls1.bw_read::cpu.data                35                       # Total read bandwidth from this memory (bytes/s)
system.mem_ctrls1.bw_read::switch_cpus.inst        33398                       # Total read bandwidth from this memory (bytes/s)
system.mem_ctrls1.bw_read::switch_cpus.data    106127583                       # Total read bandwidth from this memory (bytes/s)
system.mem_ctrls1.bw_read::switch_cpus_1.inst        11133                       # Total read bandwidth from this memory (bytes/s)
system.mem_ctrls1.bw_read::switch_cpus_1.data     23973938                       # Total read bandwidth from this memory (bytes/s)
system.mem_ctrls1.bw_read::total            130146086                       # Total read bandwidth from this memory (bytes/s)
system.mem_ctrls1.bw_inst_read::switch_cpus.inst        33398                       # Instruction read bandwidth from this memory (bytes/s)
system.mem_ctrls1.bw_inst_read::switch_cpus_1.inst        11133                       # Instruction read bandwidth from this memory (bytes/s)
system.mem_ctrls1.bw_inst_read::total           44530                       # Instruction read bandwidth from this memory (bytes/s)
system.mem_ctrls1.bw_write::writebacks       53757748                       # Write bandwidth from this memory (bytes/s)
system.mem_ctrls1.bw_write::total            53757748                       # Write bandwidth from this memory (bytes/s)
system.mem_ctrls1.bw_total::writebacks       53757748                       # Total bandwidth to/from this memory (bytes/s)
system.mem_ctrls1.bw_total::cpu.data               35                       # Total bandwidth to/from this memory (bytes/s)
system.mem_ctrls1.bw_total::switch_cpus.inst        33398                       # Total bandwidth to/from this memory (bytes/s)
system.mem_ctrls1.bw_total::switch_cpus.data    106127583                       # Total bandwidth to/from this memory (bytes/s)
system.mem_ctrls1.bw_total::switch_cpus_1.inst        11133                       # Total bandwidth to/from this memory (bytes/s)
system.mem_ctrls1.bw_total::switch_cpus_1.data     23973938                       # Total bandwidth to/from this memory (bytes/s)
system.mem_ctrls1.bw_total::total           183903834                       # Total bandwidth to/from this memory (bytes/s)
system.mem_ctrls1.readReqs                    7411859                       # Number of read requests accepted
system.mem_ctrls1.writeReqs                   3061520                       # Number of write requests accepted
system.mem_ctrls1.readBursts                  7411859                       # Number of DRAM read bursts, including those serviced by the write queue
system.mem_ctrls1.writeBursts                 3061520                       # Number of DRAM write bursts, including those merged in the write queue
system.mem_ctrls1.bytesReadDRAM             474081152                       # Total number of bytes read from DRAM
system.mem_ctrls1.bytesReadWrQ                 277824                       # Total number of bytes read from write queue
system.mem_ctrls1.bytesWritten              195935360                       # Total number of bytes written to DRAM
system.mem_ctrls1.bytesReadSys              474358976                       # Total read bytes from the system interface side
system.mem_ctrls1.bytesWrittenSys           195937280                       # Total written bytes from the system interface side
system.mem_ctrls1.servicedByWrQ                  4341                       # Number of DRAM read bursts serviced by the write queue
system.mem_ctrls1.mergedWrBursts                    0                       # Number of DRAM write bursts merged with an existing one
system.mem_ctrls1.neitherReadNorWriteReqs            0                       # Number of requests that are neither read nor write
system.mem_ctrls1.perBankRdBursts::0           461050                       # Per bank write bursts
system.mem_ctrls1.perBankRdBursts::1           464765                       # Per bank write bursts
system.mem_ctrls1.perBankRdBursts::2           464558                       # Per bank write bursts
system.mem_ctrls1.perBankRdBursts::3           451568                       # Per bank write bursts
system.mem_ctrls1.perBankRdBursts::4           447390                       # Per bank write bursts
system.mem_ctrls1.perBankRdBursts::5           466271                       # Per bank write bursts
system.mem_ctrls1.perBankRdBursts::6           479676                       # Per bank write bursts
system.mem_ctrls1.perBankRdBursts::7           471934                       # Per bank write bursts
system.mem_ctrls1.perBankRdBursts::8           488698                       # Per bank write bursts
system.mem_ctrls1.perBankRdBursts::9           470234                       # Per bank write bursts
system.mem_ctrls1.perBankRdBursts::10          449024                       # Per bank write bursts
system.mem_ctrls1.perBankRdBursts::11          449006                       # Per bank write bursts
system.mem_ctrls1.perBankRdBursts::12          448452                       # Per bank write bursts
system.mem_ctrls1.perBankRdBursts::13          465328                       # Per bank write bursts
system.mem_ctrls1.perBankRdBursts::14          469553                       # Per bank write bursts
system.mem_ctrls1.perBankRdBursts::15          460011                       # Per bank write bursts
system.mem_ctrls1.perBankWrBursts::0           190848                       # Per bank write bursts
system.mem_ctrls1.perBankWrBursts::1           188628                       # Per bank write bursts
system.mem_ctrls1.perBankWrBursts::2           191980                       # Per bank write bursts
system.mem_ctrls1.perBankWrBursts::3           185397                       # Per bank write bursts
system.mem_ctrls1.perBankWrBursts::4           186789                       # Per bank write bursts
system.mem_ctrls1.perBankWrBursts::5           191152                       # Per bank write bursts
system.mem_ctrls1.perBankWrBursts::6           199382                       # Per bank write bursts
system.mem_ctrls1.perBankWrBursts::7           193814                       # Per bank write bursts
system.mem_ctrls1.perBankWrBursts::8           202931                       # Per bank write bursts
system.mem_ctrls1.perBankWrBursts::9           189335                       # Per bank write bursts
system.mem_ctrls1.perBankWrBursts::10          190385                       # Per bank write bursts
system.mem_ctrls1.perBankWrBursts::11          188765                       # Per bank write bursts
system.mem_ctrls1.perBankWrBursts::12          184084                       # Per bank write bursts
system.mem_ctrls1.perBankWrBursts::13          191494                       # Per bank write bursts
system.mem_ctrls1.perBankWrBursts::14          195313                       # Per bank write bursts
system.mem_ctrls1.perBankWrBursts::15          191193                       # Per bank write bursts
system.mem_ctrls1.numRdRetry                        0                       # Number of times read queue was full causing retry
system.mem_ctrls1.numWrRetry                        0                       # Number of times write queue was full causing retry
system.mem_ctrls1.totGap                 3644819091774                       # Total gap between requests
system.mem_ctrls1.readPktSize::0                    0                       # Read request sizes (log2)
system.mem_ctrls1.readPktSize::1                    0                       # Read request sizes (log2)
system.mem_ctrls1.readPktSize::2                    0                       # Read request sizes (log2)
system.mem_ctrls1.readPktSize::3                    0                       # Read request sizes (log2)
system.mem_ctrls1.readPktSize::4                    0                       # Read request sizes (log2)
system.mem_ctrls1.readPktSize::5                    0                       # Read request sizes (log2)
system.mem_ctrls1.readPktSize::6              7411859                       # Read request sizes (log2)
system.mem_ctrls1.writePktSize::0                   0                       # Write request sizes (log2)
system.mem_ctrls1.writePktSize::1                   0                       # Write request sizes (log2)
system.mem_ctrls1.writePktSize::2                   0                       # Write request sizes (log2)
system.mem_ctrls1.writePktSize::3                   0                       # Write request sizes (log2)
system.mem_ctrls1.writePktSize::4                   0                       # Write request sizes (log2)
system.mem_ctrls1.writePktSize::5                   0                       # Write request sizes (log2)
system.mem_ctrls1.writePktSize::6             3061520                       # Write request sizes (log2)
system.mem_ctrls1.rdQLenPdf::0                7139798                       # What read queue length does an incoming req see
system.mem_ctrls1.rdQLenPdf::1                 239242                       # What read queue length does an incoming req see
system.mem_ctrls1.rdQLenPdf::2                  26884                       # What read queue length does an incoming req see
system.mem_ctrls1.rdQLenPdf::3                   1594                       # What read queue length does an incoming req see
system.mem_ctrls1.rdQLenPdf::4                      0                       # What read queue length does an incoming req see
system.mem_ctrls1.rdQLenPdf::5                      0                       # What read queue length does an incoming req see
system.mem_ctrls1.rdQLenPdf::6                      0                       # What read queue length does an incoming req see
system.mem_ctrls1.rdQLenPdf::7                      0                       # What read queue length does an incoming req see
system.mem_ctrls1.rdQLenPdf::8                      0                       # What read queue length does an incoming req see
system.mem_ctrls1.rdQLenPdf::9                      0                       # What read queue length does an incoming req see
system.mem_ctrls1.rdQLenPdf::10                     0                       # What read queue length does an incoming req see
system.mem_ctrls1.rdQLenPdf::11                     0                       # What read queue length does an incoming req see
system.mem_ctrls1.rdQLenPdf::12                     0                       # What read queue length does an incoming req see
system.mem_ctrls1.rdQLenPdf::13                     0                       # What read queue length does an incoming req see
system.mem_ctrls1.rdQLenPdf::14                     0                       # What read queue length does an incoming req see
system.mem_ctrls1.rdQLenPdf::15                     0                       # What read queue length does an incoming req see
system.mem_ctrls1.rdQLenPdf::16                     0                       # What read queue length does an incoming req see
system.mem_ctrls1.rdQLenPdf::17                     0                       # What read queue length does an incoming req see
system.mem_ctrls1.rdQLenPdf::18                     0                       # What read queue length does an incoming req see
system.mem_ctrls1.rdQLenPdf::19                     0                       # What read queue length does an incoming req see
system.mem_ctrls1.rdQLenPdf::20                     0                       # What read queue length does an incoming req see
system.mem_ctrls1.rdQLenPdf::21                     0                       # What read queue length does an incoming req see
system.mem_ctrls1.rdQLenPdf::22                     0                       # What read queue length does an incoming req see
system.mem_ctrls1.rdQLenPdf::23                     0                       # What read queue length does an incoming req see
system.mem_ctrls1.rdQLenPdf::24                     0                       # What read queue length does an incoming req see
system.mem_ctrls1.rdQLenPdf::25                     0                       # What read queue length does an incoming req see
system.mem_ctrls1.rdQLenPdf::26                     0                       # What read queue length does an incoming req see
system.mem_ctrls1.rdQLenPdf::27                     0                       # What read queue length does an incoming req see
system.mem_ctrls1.rdQLenPdf::28                     0                       # What read queue length does an incoming req see
system.mem_ctrls1.rdQLenPdf::29                     0                       # What read queue length does an incoming req see
system.mem_ctrls1.rdQLenPdf::30                     0                       # What read queue length does an incoming req see
system.mem_ctrls1.rdQLenPdf::31                     0                       # What read queue length does an incoming req see
system.mem_ctrls1.wrQLenPdf::0                      2                       # What write queue length does an incoming req see
system.mem_ctrls1.wrQLenPdf::1                      2                       # What write queue length does an incoming req see
system.mem_ctrls1.wrQLenPdf::2                      2                       # What write queue length does an incoming req see
system.mem_ctrls1.wrQLenPdf::3                      2                       # What write queue length does an incoming req see
system.mem_ctrls1.wrQLenPdf::4                      2                       # What write queue length does an incoming req see
system.mem_ctrls1.wrQLenPdf::5                      2                       # What write queue length does an incoming req see
system.mem_ctrls1.wrQLenPdf::6                      2                       # What write queue length does an incoming req see
system.mem_ctrls1.wrQLenPdf::7                      2                       # What write queue length does an incoming req see
system.mem_ctrls1.wrQLenPdf::8                      2                       # What write queue length does an incoming req see
system.mem_ctrls1.wrQLenPdf::9                      2                       # What write queue length does an incoming req see
system.mem_ctrls1.wrQLenPdf::10                     2                       # What write queue length does an incoming req see
system.mem_ctrls1.wrQLenPdf::11                     2                       # What write queue length does an incoming req see
system.mem_ctrls1.wrQLenPdf::12                     2                       # What write queue length does an incoming req see
system.mem_ctrls1.wrQLenPdf::13                     2                       # What write queue length does an incoming req see
system.mem_ctrls1.wrQLenPdf::14                     2                       # What write queue length does an incoming req see
system.mem_ctrls1.wrQLenPdf::15                150736                       # What write queue length does an incoming req see
system.mem_ctrls1.wrQLenPdf::16                155495                       # What write queue length does an incoming req see
system.mem_ctrls1.wrQLenPdf::17                171191                       # What write queue length does an incoming req see
system.mem_ctrls1.wrQLenPdf::18                171963                       # What write queue length does an incoming req see
system.mem_ctrls1.wrQLenPdf::19                172038                       # What write queue length does an incoming req see
system.mem_ctrls1.wrQLenPdf::20                172059                       # What write queue length does an incoming req see
system.mem_ctrls1.wrQLenPdf::21                172084                       # What write queue length does an incoming req see
system.mem_ctrls1.wrQLenPdf::22                172365                       # What write queue length does an incoming req see
system.mem_ctrls1.wrQLenPdf::23                173968                       # What write queue length does an incoming req see
system.mem_ctrls1.wrQLenPdf::24                172283                       # What write queue length does an incoming req see
system.mem_ctrls1.wrQLenPdf::25                172059                       # What write queue length does an incoming req see
system.mem_ctrls1.wrQLenPdf::26                172039                       # What write queue length does an incoming req see
system.mem_ctrls1.wrQLenPdf::27                172038                       # What write queue length does an incoming req see
system.mem_ctrls1.wrQLenPdf::28                172052                       # What write queue length does an incoming req see
system.mem_ctrls1.wrQLenPdf::29                172271                       # What write queue length does an incoming req see
system.mem_ctrls1.wrQLenPdf::30                173220                       # What write queue length does an incoming req see
system.mem_ctrls1.wrQLenPdf::31                171800                       # What write queue length does an incoming req see
system.mem_ctrls1.wrQLenPdf::32                171788                       # What write queue length does an incoming req see
system.mem_ctrls1.wrQLenPdf::33                    39                       # What write queue length does an incoming req see
system.mem_ctrls1.wrQLenPdf::34                     2                       # What write queue length does an incoming req see
system.mem_ctrls1.wrQLenPdf::35                     0                       # What write queue length does an incoming req see
system.mem_ctrls1.wrQLenPdf::36                     0                       # What write queue length does an incoming req see
system.mem_ctrls1.wrQLenPdf::37                     0                       # What write queue length does an incoming req see
system.mem_ctrls1.wrQLenPdf::38                     0                       # What write queue length does an incoming req see
system.mem_ctrls1.wrQLenPdf::39                     0                       # What write queue length does an incoming req see
system.mem_ctrls1.wrQLenPdf::40                     0                       # What write queue length does an incoming req see
system.mem_ctrls1.wrQLenPdf::41                     0                       # What write queue length does an incoming req see
system.mem_ctrls1.wrQLenPdf::42                     0                       # What write queue length does an incoming req see
system.mem_ctrls1.wrQLenPdf::43                     0                       # What write queue length does an incoming req see
system.mem_ctrls1.wrQLenPdf::44                     0                       # What write queue length does an incoming req see
system.mem_ctrls1.wrQLenPdf::45                     0                       # What write queue length does an incoming req see
system.mem_ctrls1.wrQLenPdf::46                     0                       # What write queue length does an incoming req see
system.mem_ctrls1.wrQLenPdf::47                     0                       # What write queue length does an incoming req see
system.mem_ctrls1.wrQLenPdf::48                     0                       # What write queue length does an incoming req see
system.mem_ctrls1.wrQLenPdf::49                     0                       # What write queue length does an incoming req see
system.mem_ctrls1.wrQLenPdf::50                     0                       # What write queue length does an incoming req see
system.mem_ctrls1.wrQLenPdf::51                     0                       # What write queue length does an incoming req see
system.mem_ctrls1.wrQLenPdf::52                     0                       # What write queue length does an incoming req see
system.mem_ctrls1.wrQLenPdf::53                     0                       # What write queue length does an incoming req see
system.mem_ctrls1.wrQLenPdf::54                     0                       # What write queue length does an incoming req see
system.mem_ctrls1.wrQLenPdf::55                     0                       # What write queue length does an incoming req see
system.mem_ctrls1.wrQLenPdf::56                     0                       # What write queue length does an incoming req see
system.mem_ctrls1.wrQLenPdf::57                     0                       # What write queue length does an incoming req see
system.mem_ctrls1.wrQLenPdf::58                     0                       # What write queue length does an incoming req see
system.mem_ctrls1.wrQLenPdf::59                     0                       # What write queue length does an incoming req see
system.mem_ctrls1.wrQLenPdf::60                     0                       # What write queue length does an incoming req see
system.mem_ctrls1.wrQLenPdf::61                     0                       # What write queue length does an incoming req see
system.mem_ctrls1.wrQLenPdf::62                     0                       # What write queue length does an incoming req see
system.mem_ctrls1.wrQLenPdf::63                     0                       # What write queue length does an incoming req see
system.mem_ctrls1.bytesPerActivate::samples      6732518                       # Bytes accessed per row activation
system.mem_ctrls1.bytesPerActivate::mean    99.519311                       # Bytes accessed per row activation
system.mem_ctrls1.bytesPerActivate::gmean    82.831884                       # Bytes accessed per row activation
system.mem_ctrls1.bytesPerActivate::stdev    88.777760                       # Bytes accessed per row activation
system.mem_ctrls1.bytesPerActivate::0-127      5102669     75.79%     75.79% # Bytes accessed per row activation
system.mem_ctrls1.bytesPerActivate::128-255      1168117     17.35%     93.14% # Bytes accessed per row activation
system.mem_ctrls1.bytesPerActivate::256-383       261311      3.88%     97.02% # Bytes accessed per row activation
system.mem_ctrls1.bytesPerActivate::384-511       115244      1.71%     98.73% # Bytes accessed per row activation
system.mem_ctrls1.bytesPerActivate::512-639        55033      0.82%     99.55% # Bytes accessed per row activation
system.mem_ctrls1.bytesPerActivate::640-767        19409      0.29%     99.84% # Bytes accessed per row activation
system.mem_ctrls1.bytesPerActivate::768-895         6356      0.09%     99.93% # Bytes accessed per row activation
system.mem_ctrls1.bytesPerActivate::896-1023         2583      0.04%     99.97% # Bytes accessed per row activation
system.mem_ctrls1.bytesPerActivate::1024-1151         1796      0.03%    100.00% # Bytes accessed per row activation
system.mem_ctrls1.bytesPerActivate::total      6732518                       # Bytes accessed per row activation
system.mem_ctrls1.rdPerTurnAround::samples       171782                       # Reads before turning the bus around for writes
system.mem_ctrls1.rdPerTurnAround::mean     43.121369                       # Reads before turning the bus around for writes
system.mem_ctrls1.rdPerTurnAround::gmean    41.409880                       # Reads before turning the bus around for writes
system.mem_ctrls1.rdPerTurnAround::stdev    60.489156                       # Reads before turning the bus around for writes
system.mem_ctrls1.rdPerTurnAround::0-1023       171781    100.00%    100.00% # Reads before turning the bus around for writes
system.mem_ctrls1.rdPerTurnAround::24576-25599            1      0.00%    100.00% # Reads before turning the bus around for writes
system.mem_ctrls1.rdPerTurnAround::total       171782                       # Reads before turning the bus around for writes
system.mem_ctrls1.wrPerTurnAround::samples       171782                       # Writes before turning the bus around for reads
system.mem_ctrls1.wrPerTurnAround::mean     17.821949                       # Writes before turning the bus around for reads
system.mem_ctrls1.wrPerTurnAround::gmean    17.809797                       # Writes before turning the bus around for reads
system.mem_ctrls1.wrPerTurnAround::stdev     0.642101                       # Writes before turning the bus around for reads
system.mem_ctrls1.wrPerTurnAround::16           16279      9.48%      9.48% # Writes before turning the bus around for reads
system.mem_ctrls1.wrPerTurnAround::17            4267      2.48%     11.96% # Writes before turning the bus around for reads
system.mem_ctrls1.wrPerTurnAround::18          145293     84.58%     96.54% # Writes before turning the bus around for reads
system.mem_ctrls1.wrPerTurnAround::19            5665      3.30%     99.84% # Writes before turning the bus around for reads
system.mem_ctrls1.wrPerTurnAround::20             264      0.15%     99.99% # Writes before turning the bus around for reads
system.mem_ctrls1.wrPerTurnAround::21              13      0.01%    100.00% # Writes before turning the bus around for reads
system.mem_ctrls1.wrPerTurnAround::25               1      0.00%    100.00% # Writes before turning the bus around for reads
system.mem_ctrls1.wrPerTurnAround::total       171782                       # Writes before turning the bus around for reads
system.mem_ctrls1.totQLat                157884596649                       # Total ticks spent queuing
system.mem_ctrls1.totMemAccLat           296775559149                       # Total ticks spent from burst creation until serviced by the DRAM
system.mem_ctrls1.totBusLat               37037590000                       # Total ticks spent in databus transfers
system.mem_ctrls1.avgQLat                    21314.10                       # Average queueing delay per DRAM burst
system.mem_ctrls1.avgBusLat                   5000.00                       # Average bus latency per DRAM burst
system.mem_ctrls1.avgMemAccLat               40064.10                       # Average memory access latency per DRAM burst
system.mem_ctrls1.avgRdBW                      130.07                       # Average DRAM read bandwidth in MiByte/s
system.mem_ctrls1.avgWrBW                       53.76                       # Average achieved write bandwidth in MiByte/s
system.mem_ctrls1.avgRdBWSys                   130.15                       # Average system read bandwidth in MiByte/s
system.mem_ctrls1.avgWrBWSys                    53.76                       # Average system write bandwidth in MiByte/s
system.mem_ctrls1.peakBW                     12800.00                       # Theoretical peak bandwidth in MiByte/s
system.mem_ctrls1.busUtil                        1.44                       # Data bus utilization in percentage
system.mem_ctrls1.busUtilRead                    1.02                       # Data bus utilization in percentage for reads
system.mem_ctrls1.busUtilWrite                   0.42                       # Data bus utilization in percentage for writes
system.mem_ctrls1.avgRdQLen                      1.02                       # Average read queue length when enqueuing
system.mem_ctrls1.avgWrQLen                     24.53                       # Average write queue length when enqueuing
system.mem_ctrls1.readRowHits                 3684862                       # Number of row buffer hits during reads
system.mem_ctrls1.writeRowHits                  51619                       # Number of row buffer hits during writes
system.mem_ctrls1.readRowHitRate                49.74                       # Row buffer hit rate for reads
system.mem_ctrls1.writeRowHitRate                1.69                       # Row buffer hit rate for writes
system.mem_ctrls1.avgGap                    348007.94                       # Average gap between requests
system.mem_ctrls1.pageHitRate                   35.69                       # Row buffer hit rate, read and write combined
system.mem_ctrls1_0.actEnergy             24021708900                       # Energy for activate commands per rank (pJ)
system.mem_ctrls1_0.preEnergy             12767825895                       # Energy for precharge commands per rank (pJ)
system.mem_ctrls1_0.readEnergy            26469493680                       # Energy for read commands per rank (pJ)
system.mem_ctrls1_0.writeEnergy            7976107800                       # Energy for write commands per rank (pJ)
system.mem_ctrls1_0.refreshEnergy        289523713440.000061                       # Energy for refresh commands per rank (pJ)
system.mem_ctrls1_0.actBackEnergy        191213208330                       # Energy for active background per rank (pJ)
system.mem_ctrls1_0.preBackEnergy          7217561280                       # Energy for precharge background per rank (pJ)
system.mem_ctrls1_0.actPowerDownEnergy   1204935216240                       # Energy for active power-down per rank (pJ)
system.mem_ctrls1_0.prePowerDownEnergy   197037616800                       # Energy for precharge power-down per rank (pJ)
system.mem_ctrls1_0.selfRefreshEnergy     17931933990                       # Energy for self refresh per rank (pJ)
system.mem_ctrls1_0.totalEnergy          1979134249425                       # Total energy per rank (pJ)
system.mem_ctrls1_0.averagePower           542.999266                       # Core power per rank (mW)
system.mem_ctrls1_0.totalIdleTime        3206605808721                       # Total Idle time Per DRAM Rank
system.mem_ctrls1_0.memoryStateTime::IDLE   5365550076                       # Time in different power states
system.mem_ctrls1_0.memoryStateTime::REF 122537516000                       # Time in different power states
system.mem_ctrls1_0.memoryStateTime::SREF  51087158485                       # Time in different power states
system.mem_ctrls1_0.memoryStateTime::PRE_PDN 513120192611                       # Time in different power states
system.mem_ctrls1_0.memoryStateTime::ACT 310308827481                       # Time in different power states
system.mem_ctrls1_0.memoryStateTime::ACT_PDN 2642400126508                       # Time in different power states
system.mem_ctrls1_1.actEnergy             24048533880                       # Energy for activate commands per rank (pJ)
system.mem_ctrls1_1.preEnergy             12782079915                       # Energy for precharge commands per rank (pJ)
system.mem_ctrls1_1.readEnergy            26420184840                       # Energy for read commands per rank (pJ)
system.mem_ctrls1_1.writeEnergy            8004870000                       # Energy for write commands per rank (pJ)
system.mem_ctrls1_1.refreshEnergy        289634963280.000061                       # Energy for refresh commands per rank (pJ)
system.mem_ctrls1_1.actBackEnergy        191209924560                       # Energy for active background per rank (pJ)
system.mem_ctrls1_1.preBackEnergy          7260781920                       # Energy for precharge background per rank (pJ)
system.mem_ctrls1_1.actPowerDownEnergy   1200800101650                       # Energy for active power-down per rank (pJ)
system.mem_ctrls1_1.prePowerDownEnergy   199498655040                       # Energy for precharge power-down per rank (pJ)
system.mem_ctrls1_1.selfRefreshEnergy     18847831575                       # Energy for self refresh per rank (pJ)
system.mem_ctrls1_1.totalEnergy          1978551090840                       # Total energy per rank (pJ)
system.mem_ctrls1_1.averagePower           542.839269                       # Core power per rank (mW)
system.mem_ctrls1_1.totalIdleTime        3206498051420                       # Total Idle time Per DRAM Rank
system.mem_ctrls1_1.memoryStateTime::IDLE   5515222431                       # Time in different power states
system.mem_ctrls1_1.memoryStateTime::REF 122588014000                       # Time in different power states
system.mem_ctrls1_1.memoryStateTime::SREF  53633759754                       # Time in different power states
system.mem_ctrls1_1.memoryStateTime::PRE_PDN 519526034560                       # Time in different power states
system.mem_ctrls1_1.memoryStateTime::ACT 310217627305                       # Time in different power states
system.mem_ctrls1_1.memoryStateTime::ACT_PDN 2633338713111                       # Time in different power states
system.pwrStateResidencyTicks::UNDEFINED 130597815895893                       # Cumulative time (in ticks) in various power states
system.cpu.branchPred.lookups                       3                       # Number of BP lookups
system.cpu.branchPred.condPredicted                 3                       # Number of conditional branches predicted
system.cpu.branchPred.condIncorrect                 1                       # Number of conditional branches incorrect
system.cpu.branchPred.BTBLookups                    0                       # Number of BTB lookups
system.cpu.branchPred.BTBHits                       0                       # Number of BTB hits
system.cpu.branchPred.BTBCorrect                    0                       # Number of correct BTB predictions (this stat may not work properly.
system.cpu.branchPred.BTBHitPct                   nan                       # BTB Hit Percentage
system.cpu.branchPred.usedRAS                       0                       # Number of times the RAS was used to get a target.
system.cpu.branchPred.RASInCorrect                  0                       # Number of incorrect RAS predictions.
system.cpu.branchPred.indirectLookups               0                       # Number of indirect predictor lookups.
system.cpu.branchPred.indirectHits                  0                       # Number of indirect target hits.
system.cpu.branchPred.indirectMisses                0                       # Number of indirect misses.
system.cpu.branchPredindirectMispredicted            0                       # Number of mispredicted indirect branches.
system.cpu_voltage_domain.voltage                   1                       # Voltage in Volts
system.cpu_clk_domain.clock                       333                       # Clock period in ticks
system.cpu.dtb.fetch_hits                           0                       # ITB hits
system.cpu.dtb.fetch_misses                         0                       # ITB misses
system.cpu.dtb.fetch_acv                            0                       # ITB acv
system.cpu.dtb.fetch_accesses                       0                       # ITB accesses
system.cpu.dtb.read_hits                            2                       # DTB read hits
system.cpu.dtb.read_misses                          0                       # DTB read misses
system.cpu.dtb.read_acv                             0                       # DTB read access violations
system.cpu.dtb.read_accesses                        2                       # DTB read accesses
system.cpu.dtb.write_hits                           0                       # DTB write hits
system.cpu.dtb.write_misses                         0                       # DTB write misses
system.cpu.dtb.write_acv                            0                       # DTB write access violations
system.cpu.dtb.write_accesses                       0                       # DTB write accesses
system.cpu.dtb.data_hits                            2                       # DTB hits
system.cpu.dtb.data_misses                          0                       # DTB misses
system.cpu.dtb.data_acv                             0                       # DTB access violations
system.cpu.dtb.data_accesses                        2                       # DTB accesses
system.cpu.itb.fetch_hits                           3                       # ITB hits
system.cpu.itb.fetch_misses                         0                       # ITB misses
system.cpu.itb.fetch_acv                            0                       # ITB acv
system.cpu.itb.fetch_accesses                       3                       # ITB accesses
system.cpu.itb.read_hits                            0                       # DTB read hits
system.cpu.itb.read_misses                          0                       # DTB read misses
system.cpu.itb.read_acv                             0                       # DTB read access violations
system.cpu.itb.read_accesses                        0                       # DTB read accesses
system.cpu.itb.write_hits                           0                       # DTB write hits
system.cpu.itb.write_misses                         0                       # DTB write misses
system.cpu.itb.write_acv                            0                       # DTB write access violations
system.cpu.itb.write_accesses                       0                       # DTB write accesses
system.cpu.itb.data_hits                            0                       # DTB hits
system.cpu.itb.data_misses                          0                       # DTB misses
system.cpu.itb.data_acv                             0                       # DTB access violations
system.cpu.itb.data_accesses                        0                       # DTB accesses
system.cpu.workload.num_syscalls                    0                       # Number of system calls
system.cpu.pwrStateResidencyTicks::ON    3644819371161                       # Cumulative time (in ticks) in various power states
system.cpu.numCycles                              493                       # number of cpu cycles simulated
system.cpu.numWorkItemsStarted                      0                       # number of work items this cpu started
system.cpu.numWorkItemsCompleted                    0                       # number of work items this cpu completed
system.cpu.fetch.icacheStallCycles                 19                       # Number of cycles fetch is stalled on an Icache miss
system.cpu.fetch.Insts                              9                       # Number of instructions fetch has processed
system.cpu.fetch.Branches                           3                       # Number of branches that fetch encountered
system.cpu.fetch.Cycles                             2                       # Number of cycles fetch has run and was not squashing or blocked
system.cpu.fetch.SquashCycles                       5                       # Number of cycles fetch has spent squashing
system.cpu.fetch.PendingDrainCycles                 3                       # Number of cycles fetch has spent waiting on pipes to drain
system.cpu.fetch.CacheLines                         3                       # Number of cache lines fetched
system.cpu.fetch.IcacheSquashes                     2                       # Number of outstanding Icache misses that were squashed
system.cpu.fetch.rateDist::samples                 26                       # Number of instructions fetched each cycle (Total)
system.cpu.fetch.rateDist::mean              0.346154                       # Number of instructions fetched each cycle (Total)
system.cpu.fetch.rateDist::stdev             1.573336                       # Number of instructions fetched each cycle (Total)
system.cpu.fetch.rateDist::underflows               0      0.00%      0.00% # Number of instructions fetched each cycle (Total)
system.cpu.fetch.rateDist::0                       24     92.31%     92.31% # Number of instructions fetched each cycle (Total)
system.cpu.fetch.rateDist::1                        1      3.85%     96.15% # Number of instructions fetched each cycle (Total)
system.cpu.fetch.rateDist::2                        0      0.00%     96.15% # Number of instructions fetched each cycle (Total)
system.cpu.fetch.rateDist::3                        0      0.00%     96.15% # Number of instructions fetched each cycle (Total)
system.cpu.fetch.rateDist::4                        0      0.00%     96.15% # Number of instructions fetched each cycle (Total)
system.cpu.fetch.rateDist::5                        0      0.00%     96.15% # Number of instructions fetched each cycle (Total)
system.cpu.fetch.rateDist::6                        0      0.00%     96.15% # Number of instructions fetched each cycle (Total)
system.cpu.fetch.rateDist::7                        0      0.00%     96.15% # Number of instructions fetched each cycle (Total)
system.cpu.fetch.rateDist::8                        1      3.85%    100.00% # Number of instructions fetched each cycle (Total)
system.cpu.fetch.rateDist::overflows                0      0.00%    100.00% # Number of instructions fetched each cycle (Total)
system.cpu.fetch.rateDist::min_value                0                       # Number of instructions fetched each cycle (Total)
system.cpu.fetch.rateDist::max_value                8                       # Number of instructions fetched each cycle (Total)
system.cpu.fetch.rateDist::total                   26                       # Number of instructions fetched each cycle (Total)
system.cpu.fetch.branchRate                  0.006085                       # Number of branch fetches per cycle
[...]
system.switch_cpus_1.iq.int_inst_queue_wakeup_accesses    321129506                       # Number of integer instruction queue wakeup accesses
system.switch_cpus_1.iq.fp_inst_queue_reads     69890215                       # Number of floating instruction queue reads
system.switch_cpus_1.iq.fp_inst_queue_writes    112230660                       # Number of floating instruction queue writes
system.switch_cpus_1.iq.fp_inst_queue_wakeup_accesses     28771534                       # Number of floating instruction queue wakeup accesses
system.switch_cpus_1.iq.int_alu_accesses    352033471                       # Number of integer alu accesses
system.switch_cpus_1.iq.fp_alu_accesses      35145564                       # Number of floating point alu accesses
system.switch_cpus_1.iew.lsq.thread0.forwLoads      9401816                       # Number of loads that had data forwarded from stores
system.switch_cpus_1.iew.lsq.thread0.invAddrLoads            0                       # Number of loads ignored due to an invalid address
system.switch_cpus_1.iew.lsq.thread0.squashedLoads     68331689                       # Number of loads squashed
system.switch_cpus_1.iew.lsq.thread0.ignoredResponses        27356                       # Number of memory responses ignored because the instruction is squashed
system.switch_cpus_1.iew.lsq.thread0.memOrderViolation        11208                       # Number of memory ordering violations
system.switch_cpus_1.iew.lsq.thread0.squashedStores     29617344                       # Number of stores squashed
system.switch_cpus_1.iew.lsq.thread0.invAddrSwpfs            0                       # Number of software prefetches ignored due to an invalid address
system.switch_cpus_1.iew.lsq.thread0.blockedLoads            0                       # Number of blocked loads due to partial load-store forwarding
system.switch_cpus_1.iew.lsq.thread0.rescheduledLoads          428                       # Number of loads that were rescheduled
system.switch_cpus_1.iew.lsq.thread0.cacheBlocked      2806778                       # Number of times an access to memory failed due to the cache being blocked
system.switch_cpus_1.iew.iewIdleCycles              0                       # Number of cycles IEW is idle
system.switch_cpus_1.iew.iewSquashCycles      3818481                       # Number of cycles IEW is squashing
system.switch_cpus_1.iew.iewBlockCycles     261911961                       # Number of cycles IEW is blocking
system.switch_cpus_1.iew.iewUnblockCycles    151416484                       # Number of cycles IEW is unblocking
system.switch_cpus_1.iew.iewDispatchedInsts    487918782                       # Number of instructions dispatched to IQ
system.switch_cpus_1.iew.iewDispSquashedInsts       132081                       # Number of squashed instructions skipped by dispatch
system.switch_cpus_1.iew.iewDispLoadInsts    116058945                       # Number of dispatched load instructions
system.switch_cpus_1.iew.iewDispStoreInsts     58846171                       # Number of dispatched store instructions
system.switch_cpus_1.iew.iewDispNonSpecInsts       528934                       # Number of dispatched non-speculative instructions
system.switch_cpus_1.iew.iewIQFullEvents      1307064                       # Number of times the IQ has become full, causing a stall
system.switch_cpus_1.iew.iewLSQFullEvents    149828019                       # Number of times the LSQ has become full, causing a stall
system.switch_cpus_1.iew.memOrderViolationEvents        11208                       # Number of memory order violations
system.switch_cpus_1.iew.predictedTakenIncorrect       759588                       # Number of branches that were predicted taken incorrectly
system.switch_cpus_1.iew.predictedNotTakenIncorrect      1146837                       # Number of branches that were predicted not taken incorrectly
system.switch_cpus_1.iew.branchMispredicts      1906425                       # Number of branch mispredicts detected at execute
system.switch_cpus_1.iew.iewExecutedInsts    375953148                       # Number of executed instructions
system.switch_cpus_1.iew.iewExecLoadInsts    102853188                       # Number of load instructions executed
system.switch_cpus_1.iew.iewExecSquashedInsts      4128268                       # Number of squashed instructions skipped in execute
system.switch_cpus_1.iew.exec_swp                   0                       # number of swp insts executed
system.switch_cpus_1.iew.exec_nop            23249930                       # number of nop insts executed
system.switch_cpus_1.iew.exec_refs          155220107                       # number of memory reference insts executed
system.switch_cpus_1.iew.exec_branches       72643575                       # Number of branches executed
system.switch_cpus_1.iew.exec_stores         52366919                       # Number of stores executed
system.switch_cpus_1.iew.exec_rate           0.352862                       # Inst execution rate
system.switch_cpus_1.iew.wb_sent            370418770                       # cumulative count of insts sent to commit
system.switch_cpus_1.iew.wb_count           349901040                       # cumulative count of insts written-back
system.switch_cpus_1.iew.wb_producers       177127537                       # num instructions producing a value
system.switch_cpus_1.iew.wb_consumers       259925921                       # num instructions consuming a value
system.switch_cpus_1.iew.wb_rate             0.328410                       # insts written-back per cycle
system.switch_cpus_1.iew.wb_fanout           0.681454                       # average fanout of values written-back
system.switch_cpus_1.commit.commitSquashedInsts    231673379                       # The number of squashed insts skipped by commit
system.switch_cpus_1.commit.commitNonSpecStalls       665598                       # The number of times commit has been forced to stall to communicate backwards
system.switch_cpus_1.commit.branchMispredicts      1464963                       # The number of times a branch was mispredicted
system.switch_cpus_1.commit.committed_per_cycle::samples   1030497880                       # Number of insts commited each cycle
system.switch_cpus_1.commit.committed_per_cycle::mean     0.207273                       # Number of insts commited each cycle
system.switch_cpus_1.commit.committed_per_cycle::stdev     1.111881                       # Number of insts commited each cycle
system.switch_cpus_1.commit.committed_per_cycle::underflows            0      0.00%      0.00% # Number of insts commited each cycle
system.switch_cpus_1.commit.committed_per_cycle::0    976356515     94.75%     94.75% # Number of insts commited each cycle
system.switch_cpus_1.commit.committed_per_cycle::1     19846076      1.93%     96.67% # Number of insts commited each cycle
system.switch_cpus_1.commit.committed_per_cycle::2      5998171      0.58%     97.25% # Number of insts commited each cycle
system.switch_cpus_1.commit.committed_per_cycle::3      3717197      0.36%     97.61% # Number of insts commited each cycle
system.switch_cpus_1.commit.committed_per_cycle::4      3284307      0.32%     97.93% # Number of insts commited each cycle
system.switch_cpus_1.commit.committed_per_cycle::5      2535679      0.25%     98.18% # Number of insts commited each cycle
system.switch_cpus_1.commit.committed_per_cycle::6      1903217      0.18%     98.36% # Number of insts commited each cycle
system.switch_cpus_1.commit.committed_per_cycle::7      1488268      0.14%     98.51% # Number of insts commited each cycle
system.switch_cpus_1.commit.committed_per_cycle::8     15368450      1.49%    100.00% # Number of insts commited each cycle
system.switch_cpus_1.commit.committed_per_cycle::overflows            0      0.00%    100.00% # Number of insts commited each cycle
system.switch_cpus_1.commit.committed_per_cycle::min_value            0                       # Number of insts commited each cycle
system.switch_cpus_1.commit.committed_per_cycle::max_value            8                       # Number of insts commited each cycle
system.switch_cpus_1.commit.committed_per_cycle::total   1030497880                       # Number of insts commited each cycle
system.switch_cpus_1.commit.committedInsts    213594410                       # Number of instructions committed
system.switch_cpus_1.commit.committedOps    213594410                       # Number of ops (including micro ops) committed
system.switch_cpus_1.commit.swp_count               0                       # Number of s/w prefetches committed
system.switch_cpus_1.commit.refs             76956073                       # Number of memory references committed
system.switch_cpus_1.commit.loads            47727246                       # Number of loads committed
system.switch_cpus_1.commit.membars            332799                       # Number of memory barriers committed
system.switch_cpus_1.commit.branches         42872050                       # Number of branches committed
system.switch_cpus_1.commit.fp_insts         19258208                       # Number of committed floating point instructions.
system.switch_cpus_1.commit.int_insts       185197309                       # Number of committed integer instructions.
system.switch_cpus_1.commit.function_calls      6276853                       # Number of function calls committed.
system.switch_cpus_1.commit.op_class_0::No_OpClass     13768422      6.45%      6.45% # Class of committed instruction
system.switch_cpus_1.commit.op_class_0::IntAlu    110964867     51.95%     58.40% # Class of committed instruction
system.switch_cpus_1.commit.op_class_0::IntMult        87084      0.04%     58.44% # Class of committed instruction
system.switch_cpus_1.commit.op_class_0::IntDiv            0      0.00%     58.44% # Class of committed instruction
system.switch_cpus_1.commit.op_class_0::FloatAdd      6284834      2.94%     61.38% # Class of committed instruction
system.switch_cpus_1.commit.op_class_0::FloatCmp      4706081      2.20%     63.58% # Class of committed instruction
system.switch_cpus_1.commit.op_class_0::FloatCvt       352967      0.17%     63.75% # Class of committed instruction
system.switch_cpus_1.commit.op_class_0::FloatMult        54220      0.03%     63.77% # Class of committed instruction
system.switch_cpus_1.commit.op_class_0::FloatMultAcc            0      0.00%     63.77% # Class of committed instruction
system.switch_cpus_1.commit.op_class_0::FloatDiv        87048      0.04%     63.82% # Class of committed instruction
system.switch_cpus_1.commit.op_class_0::FloatMisc            0      0.00%     63.82% # Class of committed instruction
system.switch_cpus_1.commit.op_class_0::FloatSqrt           15      0.00%     63.82% # Class of committed instruction
system.switch_cpus_1.commit.op_class_0::SimdAdd            0      0.00%     63.82% # Class of committed instruction
system.switch_cpus_1.commit.op_class_0::SimdAddAcc            0      0.00%     63.82% # Class of committed instruction
system.switch_cpus_1.commit.op_class_0::SimdAlu            0      0.00%     63.82% # Class of committed instruction
system.switch_cpus_1.commit.op_class_0::SimdCmp            0      0.00%     63.82% # Class of committed instruction
system.switch_cpus_1.commit.op_class_0::SimdCvt            0      0.00%     63.82% # Class of committed instruction
system.switch_cpus_1.commit.op_class_0::SimdMisc            0      0.00%     63.82% # Class of committed instruction
system.switch_cpus_1.commit.op_class_0::SimdMult            0      0.00%     63.82% # Class of committed instruction
system.switch_cpus_1.commit.op_class_0::SimdMultAcc            0      0.00%     63.82% # Class of committed instruction
system.switch_cpus_1.commit.op_class_0::SimdShift            0      0.00%     63.82% # Class of committed instruction
system.switch_cpus_1.commit.op_class_0::SimdShiftAcc            0      0.00%     63.82% # Class of committed instruction
system.switch_cpus_1.commit.op_class_0::SimdSqrt            0      0.00%     63.82% # Class of committed instruction
system.switch_cpus_1.commit.op_class_0::SimdFloatAdd            0      0.00%     63.82% # Class of committed instruction
system.switch_cpus_1.commit.op_class_0::SimdFloatAlu            0      0.00%     63.82% # Class of committed instruction
system.switch_cpus_1.commit.op_class_0::SimdFloatCmp            0      0.00%     63.82% # Class of committed instruction
system.switch_cpus_1.commit.op_class_0::SimdFloatCvt            0      0.00%     63.82% # Class of committed instruction
system.switch_cpus_1.commit.op_class_0::SimdFloatDiv            0      0.00%     63.82% # Class of committed instruction
system.switch_cpus_1.commit.op_class_0::SimdFloatMisc            0      0.00%     63.82% # Class of committed instruction
system.switch_cpus_1.commit.op_class_0::SimdFloatMult            0      0.00%     63.82% # Class of committed instruction
system.switch_cpus_1.commit.op_class_0::SimdFloatMultAcc            0      0.00%     63.82% # Class of committed instruction
system.switch_cpus_1.commit.op_class_0::SimdFloatSqrt            0      0.00%     63.82% # Class of committed instruction
system.switch_cpus_1.commit.op_class_0::MemRead     41999437     19.66%     83.48% # Class of committed instruction
system.switch_cpus_1.commit.op_class_0::MemWrite     27516392     12.88%     96.36% # Class of committed instruction
system.switch_cpus_1.commit.op_class_0::FloatMemRead      6060608      2.84%     99.20% # Class of committed instruction
system.switch_cpus_1.commit.op_class_0::FloatMemWrite      1712435      0.80%    100.00% # Class of committed instruction
system.switch_cpus_1.commit.op_class_0::IprAccess            0      0.00%    100.00% # Class of committed instruction
system.switch_cpus_1.commit.op_class_0::InstPrefetch            0      0.00%    100.00% # Class of committed instruction
system.switch_cpus_1.commit.op_class_0::total    213594410                       # Class of committed instruction
system.switch_cpus_1.commit.bw_lim_events     15368450                       # number cycles where commit BW limit reached
system.switch_cpus_1.rob.rob_reads         1429915872                       # The number of ROB reads
system.switch_cpus_1.rob.rob_writes         922604163                       # The number of ROB writes
system.switch_cpus_1.timesIdled                 23272                       # Number of times that the entire CPU went into an idle state and unscheduled itself
system.switch_cpus_1.idleCycles               2928946                       # Total number of cycles that the CPU has spent unscheduled due to idling
system.switch_cpus_1.committedInsts         200000000                       # Number of Instructions Simulated
system.switch_cpus_1.committedOps           200000000                       # Number of Ops (including micro ops) Simulated
system.switch_cpus_1.cpi                     5.327204                       # CPI: Cycles Per Instruction
system.switch_cpus_1.cpi_total               5.327204                       # CPI: Total CPI of All Threads
system.switch_cpus_1.ipc                     0.187716                       # IPC: Instructions Per Cycle
system.switch_cpus_1.ipc_total               0.187716                       # IPC: Total IPC of All Threads
system.switch_cpus_1.int_regfile_reads      476748161                       # number of integer regfile reads
system.switch_cpus_1.int_regfile_writes     219369553                       # number of integer regfile writes
system.switch_cpus_1.fp_regfile_reads        26331641                       # number of floating regfile reads
system.switch_cpus_1.fp_regfile_writes       19805657                       # number of floating regfile writes
system.switch_cpus_1.misc_regfile_reads        925580                       # number of misc regfile reads
system.switch_cpus_1.misc_regfile_writes       752604                       # number of misc regfile writes
system.tol3bus.snoop_filter.tot_requests     44293394                       # Total number of requests made to the snoop filter.
system.tol3bus.snoop_filter.hit_single_requests     22147063                       # Number of requests hitting in the snoop filter with a single holder of the requested data.
system.tol3bus.snoop_filter.hit_multi_requests            0                       # Number of requests hitting in the snoop filter with multiple (>1) holders of the requested data.
system.tol3bus.snoop_filter.tot_snoops         314371                       # Total number of snoops made to the snoop filter.
system.tol3bus.snoop_filter.hit_single_snoops       314371                       # Number of snoops hitting in the snoop filter with a single holder of the requested data.
system.tol3bus.snoop_filter.hit_multi_snoops            0                       # Number of snoops hitting in the snoop filter with multiple (>1) holders of the requested data.
system.tol3bus.pwrStateResidencyTicks::UNDEFINED 130597815895893                       # Cumulative time (in ticks) in various power states
system.tol3bus.trans_dist::ReadResp          18859553                       # Transaction distribution
system.tol3bus.trans_dist::WritebackDirty     17026476                       # Transaction distribution
system.tol3bus.trans_dist::CleanEvict        19974390                       # Transaction distribution
system.tol3bus.trans_dist::UpgradeReq            1900                       # Transaction distribution
system.tol3bus.trans_dist::UpgradeResp           1900                       # Transaction distribution
system.tol3bus.trans_dist::ReadExReq          3286778                       # Transaction distribution
system.tol3bus.trans_dist::ReadExResp         3286778                       # Transaction distribution
system.tol3bus.trans_dist::ReadSharedReq     18859553                       # Transaction distribution
system.tol3bus.pkt_count_system.cpu.l2.mem_side::system.l3.cpu_side     66441625                       # Packet count per connected master and slave (bytes)
system.tol3bus.pkt_size_system.cpu.l2.mem_side::system.l3.cpu_side   2114733632                       # Cumulative packet size per connected master and slave (bytes)
system.tol3bus.snoops                        14855703                       # Total snoops (count)
system.tol3bus.snoopTraffic                 392326016                       # Total snoop traffic (bytes)
system.tol3bus.snoop_fanout::samples         37003934                       # Request fanout histogram
system.tol3bus.snoop_fanout::mean            0.008496                       # Request fanout histogram
system.tol3bus.snoop_fanout::stdev           0.091779                       # Request fanout histogram
system.tol3bus.snoop_fanout::underflows             0      0.00%      0.00% # Request fanout histogram
system.tol3bus.snoop_fanout::0               36689563     99.15%     99.15% # Request fanout histogram
system.tol3bus.snoop_fanout::1                 314371      0.85%    100.00% # Request fanout histogram
system.tol3bus.snoop_fanout::overflows              0      0.00%    100.00% # Request fanout histogram
system.tol3bus.snoop_fanout::min_value              0                       # Request fanout histogram
system.tol3bus.snoop_fanout::max_value              1                       # Request fanout histogram
system.tol3bus.snoop_fanout::total           37003934                       # Request fanout histogram
system.tol3bus.reqLayer0.occupancy        18378195408                       # Layer occupancy (ticks)
system.tol3bus.reqLayer0.utilization              0.5                       # Layer utilization (%)
system.tol3bus.respLayer0.occupancy       14750089146                       # Layer occupancy (ticks)
system.tol3bus.respLayer0.utilization             0.4                       # Layer utilization (%)

---------- End Simulation Statistics   ----------
