
---------- Begin Simulation Statistics ----------
sim_seconds                                 17.506728                       # Number of seconds simulated
sim_ticks                                17506727786871                       # Number of ticks simulated
final_tick                               179588910949371                       # Number of ticks from beginning of simulation (restored from checkpoints and never reset)
sim_freq                                 1000000000000                       # Frequency of simulated ticks
host_inst_rate                                  35725                       # Simulator instruction rate (inst/s)
host_op_rate                                    35725                       # Simulator op (including micro ops) rate (op/s)
host_tick_rate                              521191940                       # Simulator tick rate (ticks/s)
host_mem_usage                                2689560                       # Number of bytes of host memory used
host_seconds                                 33589.79                       # Real time elapsed on the host
sim_insts                                  1200000012                       # Number of instructions simulated
sim_ops                                    1200000012                       # Number of ops (including micro ops) simulated
system.voltage_domain.voltage                       1                       # Voltage in Volts
system.clk_domain.clock                          1000                       # Clock period in ticks
system.mem_ctrls0.pwrStateResidencyTicks::UNDEFINED 179588910949371                       # Cumulative time (in ticks) in various power states
system.mem_ctrls0.bytes_read::cpu.inst            128                       # Number of bytes read from this memory
system.mem_ctrls0.bytes_read::switch_cpus.inst         1472                       # Number of bytes read from this memory
system.mem_ctrls0.bytes_read::switch_cpus.data   1783313600                       # Number of bytes read from this memory
system.mem_ctrls0.bytes_read::switch_cpus_1.inst          128                       # Number of bytes read from this memory
system.mem_ctrls0.bytes_read::switch_cpus_1.data    354660352                       # Number of bytes read from this memory
system.mem_ctrls0.bytes_read::total        2137975680                       # Number of bytes read from this memory
system.mem_ctrls0.bytes_inst_read::cpu.inst          128                       # Number of instructions bytes read from this memory
system.mem_ctrls0.bytes_inst_read::switch_cpus.inst         1472                       # Number of instructions bytes read from this memory
system.mem_ctrls0.bytes_inst_read::switch_cpus_1.inst          128                       # Number of instructions bytes read from this memory
system.mem_ctrls0.bytes_inst_read::total         1728                       # Number of instructions bytes read from this memory
system.mem_ctrls0.bytes_written::writebacks      3434176                       # Number of bytes written to this memory
system.mem_ctrls0.bytes_written::total        3434176                       # Number of bytes written to this memory
system.mem_ctrls0.num_reads::cpu.inst               2                       # Number of read requests responded to by this memory
system.mem_ctrls0.num_reads::switch_cpus.inst           23                       # Number of read requests responded to by this memory
system.mem_ctrls0.num_reads::switch_cpus.data     27864275                       # Number of read requests responded to by this memory
system.mem_ctrls0.num_reads::switch_cpus_1.inst            2                       # Number of read requests responded to by this memory
system.mem_ctrls0.num_reads::switch_cpus_1.data      5541568                       # Number of read requests responded to by this memory
system.mem_ctrls0.num_reads::total           33405870                       # Number of read requests responded to by this memory
system.mem_ctrls0.num_writes::writebacks        53659                       # Number of write requests responded to by this memory
system.mem_ctrls0.num_writes::total             53659                       # Number of write requests responded to by this memory
system.mem_ctrls0.bw_read::cpu.inst                 7                       # Total read bandwidth from this memory (bytes/s)
system.mem_ctrls0.bw_read::switch_cpus.inst           84                       # Total read bandwidth from this memory (bytes/s)
system.mem_ctrls0.bw_read::switch_cpus.data    101864473                       # Total read bandwidth from this memory (bytes/s)
system.mem_ctrls0.bw_read::switch_cpus_1.inst            7                       # Total read bandwidth from this memory (bytes/s)
system.mem_ctrls0.bw_read::switch_cpus_1.data     20258518                       # Total read bandwidth from this memory (bytes/s)
system.mem_ctrls0.bw_read::total            122123089                       # Total read bandwidth from this memory (bytes/s)
system.mem_ctrls0.bw_inst_read::cpu.inst            7                       # Instruction read bandwidth from this memory (bytes/s)
system.mem_ctrls0.bw_inst_read::switch_cpus.inst           84                       # Instruction read bandwidth from this memory (bytes/s)
system.mem_ctrls0.bw_inst_read::switch_cpus_1.inst            7                       # Instruction read bandwidth from this memory (bytes/s)
system.mem_ctrls0.bw_inst_read::total              99                       # Instruction read bandwidth from this memory (bytes/s)
system.mem_ctrls0.bw_write::writebacks         196163                       # Write bandwidth from this memory (bytes/s)
system.mem_ctrls0.bw_write::total              196163                       # Write bandwidth from this memory (bytes/s)
system.mem_ctrls0.bw_total::writebacks         196163                       # Total bandwidth to/from this memory (bytes/s)
system.mem_ctrls0.bw_total::cpu.inst                7                       # Total bandwidth to/from this memory (bytes/s)
system.mem_ctrls0.bw_total::switch_cpus.inst           84                       # Total bandwidth to/from this memory (bytes/s)
system.mem_ctrls0.bw_total::switch_cpus.data    101864473                       # Total bandwidth to/from this memory (bytes/s)
system.mem_ctrls0.bw_total::switch_cpus_1.inst            7                       # Total bandwidth to/from this memory (bytes/s)
system.mem_ctrls0.bw_total::switch_cpus_1.data     20258518                       # Total bandwidth to/from this memory (bytes/s)
system.mem_ctrls0.bw_total::total           122319252                       # Total bandwidth to/from this memory (bytes/s)
system.mem_ctrls0.readReqs                   33405870                       # Number of read requests accepted
system.mem_ctrls0.writeReqs                     53659                       # Number of write requests accepted
system.mem_ctrls0.readBursts                 33405870                       # Number of DRAM read bursts, including those serviced by the write queue
system.mem_ctrls0.writeBursts                   53659                       # Number of DRAM write bursts, including those merged in the write queue
system.mem_ctrls0.bytesReadDRAM            2137631232                       # Total number of bytes read from DRAM
system.mem_ctrls0.bytesReadWrQ                 344448                       # Total number of bytes read from write queue
system.mem_ctrls0.bytesWritten                3415872                       # Total number of bytes written to DRAM
system.mem_ctrls0.bytesReadSys             2137975680                       # Total read bytes from the system interface side
system.mem_ctrls0.bytesWrittenSys             3434176                       # Total written bytes from the system interface side
system.mem_ctrls0.servicedByWrQ                  5382                       # Number of DRAM read bursts serviced by the write queue
system.mem_ctrls0.mergedWrBursts                  264                       # Number of DRAM write bursts merged with an existing one
system.mem_ctrls0.neitherReadNorWriteReqs            0                       # Number of requests that are neither read nor write
system.mem_ctrls0.perBankRdBursts::0          2085022                       # Per bank write bursts
system.mem_ctrls0.perBankRdBursts::1          2081476                       # Per bank write bursts
system.mem_ctrls0.perBankRdBursts::2          2090510                       # Per bank write bursts
system.mem_ctrls0.perBankRdBursts::3          2083531                       # Per bank write bursts
system.mem_ctrls0.perBankRdBursts::4          2087795                       # Per bank write bursts
system.mem_ctrls0.perBankRdBursts::5          2086938                       # Per bank write bursts
system.mem_ctrls0.perBankRdBursts::6          2091063                       # Per bank write bursts
system.mem_ctrls0.perBankRdBursts::7          2089438                       # Per bank write bursts
system.mem_ctrls0.perBankRdBursts::8          2095646                       # Per bank write bursts
system.mem_ctrls0.perBankRdBursts::9          2088109                       # Per bank write bursts
system.mem_ctrls0.perBankRdBursts::10         2092312                       # Per bank write bursts
system.mem_ctrls0.perBankRdBursts::11         2088495                       # Per bank write bursts
system.mem_ctrls0.perBankRdBursts::12         2083679                       # Per bank write bursts
system.mem_ctrls0.perBankRdBursts::13         2088156                       # Per bank write bursts
system.mem_ctrls0.perBankRdBursts::14         2089718                       # Per bank write bursts
system.mem_ctrls0.perBankRdBursts::15         2078600                       # Per bank write bursts
system.mem_ctrls0.perBankWrBursts::0             3202                       # Per bank write bursts
system.mem_ctrls0.perBankWrBursts::1             3178                       # Per bank write bursts
system.mem_ctrls0.perBankWrBursts::2             3126                       # Per bank write bursts
system.mem_ctrls0.perBankWrBursts::3             3797                       # Per bank write bursts
system.mem_ctrls0.perBankWrBursts::4             4150                       # Per bank write bursts
system.mem_ctrls0.perBankWrBursts::5             3275                       # Per bank write bursts
system.mem_ctrls0.perBankWrBursts::6             3210                       # Per bank write bursts
system.mem_ctrls0.perBankWrBursts::7             3389                       # Per bank write bursts
system.mem_ctrls0.perBankWrBursts::8             3385                       # Per bank write bursts
system.mem_ctrls0.perBankWrBursts::9             3197                       # Per bank write bursts
system.mem_ctrls0.perBankWrBursts::10            3263                       # Per bank write bursts
system.mem_ctrls0.perBankWrBursts::11            3279                       # Per bank write bursts
system.mem_ctrls0.perBankWrBursts::12            3257                       # Per bank write bursts
system.mem_ctrls0.perBankWrBursts::13            3252                       # Per bank write bursts
system.mem_ctrls0.perBankWrBursts::14            3204                       # Per bank write bursts
system.mem_ctrls0.perBankWrBursts::15            3209                       # Per bank write bursts
system.mem_ctrls0.numRdRetry                        0                       # Number of times read queue was full causing retry
system.mem_ctrls0.numWrRetry                        0                       # Number of times write queue was full causing retry
system.mem_ctrls0.totGap                 17506726704711                       # Total gap between requests
system.mem_ctrls0.readPktSize::0                    0                       # Read request sizes (log2)
system.mem_ctrls0.readPktSize::1                    0                       # Read request sizes (log2)
system.mem_ctrls0.readPktSize::2                    0                       # Read request sizes (log2)
system.mem_ctrls0.readPktSize::3                    0                       # Read request sizes (log2)
system.mem_ctrls0.readPktSize::4                    0                       # Read request sizes (log2)
system.mem_ctrls0.readPktSize::5                    0                       # Read request sizes (log2)
system.mem_ctrls0.readPktSize::6             33405870                       # Read request sizes (log2)
system.mem_ctrls0.writePktSize::0                   0                       # Write request sizes (log2)
system.mem_ctrls0.writePktSize::1                   0                       # Write request sizes (log2)
system.mem_ctrls0.writePktSize::2                   0                       # Write request sizes (log2)
system.mem_ctrls0.writePktSize::3                   0                       # Write request sizes (log2)
system.mem_ctrls0.writePktSize::4                   0                       # Write request sizes (log2)
system.mem_ctrls0.writePktSize::5                   0                       # Write request sizes (log2)
system.mem_ctrls0.writePktSize::6               53659                       # Write request sizes (log2)
system.mem_ctrls0.rdQLenPdf::0               33400122                       # What read queue length does an incoming req see
system.mem_ctrls0.rdQLenPdf::1                    348                       # What read queue length does an incoming req see
system.mem_ctrls0.rdQLenPdf::2                     18                       # What read queue length does an incoming req see
system.mem_ctrls0.rdQLenPdf::3                      0                       # What read queue length does an incoming req see
system.mem_ctrls0.rdQLenPdf::4                      0                       # What read queue length does an incoming req see
system.mem_ctrls0.rdQLenPdf::5                      0                       # What read queue length does an incoming req see
system.mem_ctrls0.rdQLenPdf::6                      0                       # What read queue length does an incoming req see
system.mem_ctrls0.rdQLenPdf::7                      0                       # What read queue length does an incoming req see
system.mem_ctrls0.rdQLenPdf::8                      0                       # What read queue length does an incoming req see
system.mem_ctrls0.rdQLenPdf::9                      0                       # What read queue length does an incoming req see
system.mem_ctrls0.rdQLenPdf::10                     0                       # What read queue length does an incoming req see
system.mem_ctrls0.rdQLenPdf::11                     0                       # What read queue length does an incoming req see
system.mem_ctrls0.rdQLenPdf::12                     0                       # What read queue length does an incoming req see
system.mem_ctrls0.rdQLenPdf::13                     0                       # What read queue length does an incoming req see
system.mem_ctrls0.rdQLenPdf::14                     0                       # What read queue length does an incoming req see
system.mem_ctrls0.rdQLenPdf::15                     0                       # What read queue length does an incoming req see
system.mem_ctrls0.rdQLenPdf::16                     0                       # What read queue length does an incoming req see
system.mem_ctrls0.rdQLenPdf::17                     0                       # What read queue length does an incoming req see
system.mem_ctrls0.rdQLenPdf::18                     0                       # What read queue length does an incoming req see
system.mem_ctrls0.rdQLenPdf::19                     0                       # What read queue length does an incoming req see
system.mem_ctrls0.rdQLenPdf::20                     0                       # What read queue length does an incoming req see
system.mem_ctrls0.rdQLenPdf::21                     0                       # What read queue length does an incoming req see
system.mem_ctrls0.rdQLenPdf::22                     0                       # What read queue length does an incoming req see
system.mem_ctrls0.rdQLenPdf::23                     0                       # What read queue length does an incoming req see
system.mem_ctrls0.rdQLenPdf::24                     0                       # What read queue length does an incoming req see
system.mem_ctrls0.rdQLenPdf::25                     0                       # What read queue length does an incoming req see
system.mem_ctrls0.rdQLenPdf::26                     0                       # What read queue length does an incoming req see
system.mem_ctrls0.rdQLenPdf::27                     0                       # What read queue length does an incoming req see
system.mem_ctrls0.rdQLenPdf::28                     0                       # What read queue length does an incoming req see
system.mem_ctrls0.rdQLenPdf::29                     0                       # What read queue length does an incoming req see
system.mem_ctrls0.rdQLenPdf::30                     0                       # What read queue length does an incoming req see
system.mem_ctrls0.rdQLenPdf::31                     0                       # What read queue length does an incoming req see
system.mem_ctrls0.wrQLenPdf::0                      2                       # What write queue length does an incoming req see
system.mem_ctrls0.wrQLenPdf::1                      2                       # What write queue length does an incoming req see
system.mem_ctrls0.wrQLenPdf::2                      2                       # What write queue length does an incoming req see
system.mem_ctrls0.wrQLenPdf::3                      2                       # What write queue length does an incoming req see
system.mem_ctrls0.wrQLenPdf::4                      2                       # What write queue length does an incoming req see
system.mem_ctrls0.wrQLenPdf::5                      2                       # What write queue length does an incoming req see
system.mem_ctrls0.wrQLenPdf::6                      2                       # What write queue length does an incoming req see
system.mem_ctrls0.wrQLenPdf::7                      2                       # What write queue length does an incoming req see
system.mem_ctrls0.wrQLenPdf::8                      2                       # What write queue length does an incoming req see
system.mem_ctrls0.wrQLenPdf::9                      2                       # What write queue length does an incoming req see
system.mem_ctrls0.wrQLenPdf::10                     2                       # What write queue length does an incoming req see
system.mem_ctrls0.wrQLenPdf::11                     2                       # What write queue length does an incoming req see
system.mem_ctrls0.wrQLenPdf::12                     2                       # What write queue length does an incoming req see
system.mem_ctrls0.wrQLenPdf::13                     2                       # What write queue length does an incoming req see
system.mem_ctrls0.wrQLenPdf::14                     2                       # What write queue length does an incoming req see
system.mem_ctrls0.wrQLenPdf::15                  2840                       # What write queue length does an incoming req see
system.mem_ctrls0.wrQLenPdf::16                  2871                       # What write queue length does an incoming req see
system.mem_ctrls0.wrQLenPdf::17                  2978                       # What write queue length does an incoming req see
system.mem_ctrls0.wrQLenPdf::18                  2979                       # What write queue length does an incoming req see
system.mem_ctrls0.wrQLenPdf::19                  2980                       # What write queue length does an incoming req see
system.mem_ctrls0.wrQLenPdf::20                  2980                       # What write queue length does an incoming req see
system.mem_ctrls0.wrQLenPdf::21                  2979                       # What write queue length does an incoming req see
system.mem_ctrls0.wrQLenPdf::22                  2980                       # What write queue length does an incoming req see
system.mem_ctrls0.wrQLenPdf::23                  2984                       # What write queue length does an incoming req see
system.mem_ctrls0.wrQLenPdf::24                  2977                       # What write queue length does an incoming req see
system.mem_ctrls0.wrQLenPdf::25                  2978                       # What write queue length does an incoming req see
system.mem_ctrls0.wrQLenPdf::26                  2977                       # What write queue length does an incoming req see
system.mem_ctrls0.wrQLenPdf::27                  2977                       # What write queue length does an incoming req see
system.mem_ctrls0.wrQLenPdf::28                  2977                       # What write queue length does an incoming req see
system.mem_ctrls0.wrQLenPdf::29                  2977                       # What write queue length does an incoming req see
system.mem_ctrls0.wrQLenPdf::30                  2977                       # What write queue length does an incoming req see
system.mem_ctrls0.wrQLenPdf::31                  2977                       # What write queue length does an incoming req see
system.mem_ctrls0.wrQLenPdf::32                  2977                       # What write queue length does an incoming req see
system.mem_ctrls0.wrQLenPdf::33                     0                       # What write queue length does an incoming req see
system.mem_ctrls0.wrQLenPdf::34                     0                       # What write queue length does an incoming req see
system.mem_ctrls0.wrQLenPdf::35                     0                       # What write queue length does an incoming req see
system.mem_ctrls0.wrQLenPdf::36                     0                       # What write queue length does an incoming req see
system.mem_ctrls0.wrQLenPdf::37                     0                       # What write queue length does an incoming req see
system.mem_ctrls0.wrQLenPdf::38                     0                       # What write queue length does an incoming req see
system.mem_ctrls0.wrQLenPdf::39                     0                       # What write queue length does an incoming req see
system.mem_ctrls0.wrQLenPdf::40                     0                       # What write queue length does an incoming req see
system.mem_ctrls0.wrQLenPdf::41                     0                       # What write queue length does an incoming req see
system.mem_ctrls0.wrQLenPdf::42                     0                       # What write queue length does an incoming req see
system.mem_ctrls0.wrQLenPdf::43                     0                       # What write queue length does an incoming req see
system.mem_ctrls0.wrQLenPdf::44                     0                       # What write queue length does an incoming req see
system.mem_ctrls0.wrQLenPdf::45                     0                       # What write queue length does an incoming req see
system.mem_ctrls0.wrQLenPdf::46                     0                       # What write queue length does an incoming req see
system.mem_ctrls0.wrQLenPdf::47                     0                       # What write queue length does an incoming req see
system.mem_ctrls0.wrQLenPdf::48                     0                       # What write queue length does an incoming req see
system.mem_ctrls0.wrQLenPdf::49                     0                       # What write queue length does an incoming req see
system.mem_ctrls0.wrQLenPdf::50                     0                       # What write queue length does an incoming req see
system.mem_ctrls0.wrQLenPdf::51                     0                       # What write queue length does an incoming req see
system.mem_ctrls0.wrQLenPdf::52                     0                       # What write queue length does an incoming req see
system.mem_ctrls0.wrQLenPdf::53                     0                       # What write queue length does an incoming req see
system.mem_ctrls0.wrQLenPdf::54                     0                       # What write queue length does an incoming req see
system.mem_ctrls0.wrQLenPdf::55                     0                       # What write queue length does an incoming req see
system.mem_ctrls0.wrQLenPdf::56                     0                       # What write queue length does an incoming req see
system.mem_ctrls0.wrQLenPdf::57                     0                       # What write queue length does an incoming req see
system.mem_ctrls0.wrQLenPdf::58                     0                       # What write queue length does an incoming req see
system.mem_ctrls0.wrQLenPdf::59                     0                       # What write queue length does an incoming req see
system.mem_ctrls0.wrQLenPdf::60                     0                       # What write queue length does an incoming req see
system.mem_ctrls0.wrQLenPdf::61                     0                       # What write queue length does an incoming req see
system.mem_ctrls0.wrQLenPdf::62                     0                       # What write queue length does an incoming req see
system.mem_ctrls0.wrQLenPdf::63                     0                       # What write queue length does an incoming req see
system.mem_ctrls0.bytesPerActivate::samples     33407924                       # Bytes accessed per row activation
system.mem_ctrls0.bytesPerActivate::mean    64.087989                       # Bytes accessed per row activation
system.mem_ctrls0.bytesPerActivate::gmean    64.050933                       # Bytes accessed per row activation
system.mem_ctrls0.bytesPerActivate::stdev     3.474528                       # Bytes accessed per row activation
system.mem_ctrls0.bytesPerActivate::64-127     33376839     99.91%     99.91% # Bytes accessed per row activation
system.mem_ctrls0.bytesPerActivate::128-191        22461      0.07%     99.97% # Bytes accessed per row activation
system.mem_ctrls0.bytesPerActivate::192-255         5166      0.02%     99.99% # Bytes accessed per row activation
system.mem_ctrls0.bytesPerActivate::256-319         1958      0.01%    100.00% # Bytes accessed per row activation
system.mem_ctrls0.bytesPerActivate::320-383          824      0.00%    100.00% # Bytes accessed per row activation
system.mem_ctrls0.bytesPerActivate::384-447          369      0.00%    100.00% # Bytes accessed per row activation
system.mem_ctrls0.bytesPerActivate::448-511          168      0.00%    100.00% # Bytes accessed per row activation
system.mem_ctrls0.bytesPerActivate::512-575           80      0.00%    100.00% # Bytes accessed per row activation
system.mem_ctrls0.bytesPerActivate::576-639           29      0.00%    100.00% # Bytes accessed per row activation
system.mem_ctrls0.bytesPerActivate::640-703           13      0.00%    100.00% # Bytes accessed per row activation
system.mem_ctrls0.bytesPerActivate::704-767            1      0.00%    100.00% # Bytes accessed per row activation
system.mem_ctrls0.bytesPerActivate::768-831            5      0.00%    100.00% # Bytes accessed per row activation
system.mem_ctrls0.bytesPerActivate::832-895            6      0.00%    100.00% # Bytes accessed per row activation
system.mem_ctrls0.bytesPerActivate::896-959            2      0.00%    100.00% # Bytes accessed per row activation
system.mem_ctrls0.bytesPerActivate::960-1023            3      0.00%    100.00% # Bytes accessed per row activation
system.mem_ctrls0.bytesPerActivate::total     33407924                       # Bytes accessed per row activation
system.mem_ctrls0.rdPerTurnAround::samples         2978                       # Reads before turning the bus around for writes
system.mem_ctrls0.rdPerTurnAround::mean  11193.505709                       # Reads before turning the bus around for writes
system.mem_ctrls0.rdPerTurnAround::gmean   272.897071                       # Reads before turning the bus around for writes
system.mem_ctrls0.rdPerTurnAround::stdev 52495.466255                       # Reads before turning the bus around for writes
system.mem_ctrls0.rdPerTurnAround::0-32767         2785     93.52%     93.52% # Reads before turning the bus around for writes
system.mem_ctrls0.rdPerTurnAround::32768-65535           63      2.12%     95.63% # Reads before turning the bus around for writes
system.mem_ctrls0.rdPerTurnAround::65536-98303           37      1.24%     96.88% # Reads before turning the bus around for writes
system.mem_ctrls0.rdPerTurnAround::98304-131071           20      0.67%     97.55% # Reads before turning the bus around for writes
system.mem_ctrls0.rdPerTurnAround::131072-163839           22      0.74%     98.29% # Reads before turning the bus around for writes
system.mem_ctrls0.rdPerTurnAround::163840-196607            8      0.27%     98.56% # Reads before turning the bus around for writes
system.mem_ctrls0.rdPerTurnAround::196608-229375            4      0.13%     98.69% # Reads before turning the bus around for writes
system.mem_ctrls0.rdPerTurnAround::229376-262143            6      0.20%     98.89% # Reads before turning the bus around for writes
system.mem_ctrls0.rdPerTurnAround::262144-294911            6      0.20%     99.09% # Reads before turning the bus around for writes
system.mem_ctrls0.rdPerTurnAround::294912-327679            4      0.13%     99.23% # Reads before turning the bus around for writes
system.mem_ctrls0.rdPerTurnAround::327680-360447            2      0.07%     99.29% # Reads before turning the bus around for writes
system.mem_ctrls0.rdPerTurnAround::360448-393215            2      0.07%     99.36% # Reads before turning the bus around for writes
system.mem_ctrls0.rdPerTurnAround::393216-425983            8      0.27%     99.63% # Reads before turning the bus around for writes
system.mem_ctrls0.rdPerTurnAround::425984-458751            2      0.07%     99.70% # Reads before turning the bus around for writes
system.mem_ctrls0.rdPerTurnAround::458752-491519            1      0.03%     99.73% # Reads before turning the bus around for writes
system.mem_ctrls0.rdPerTurnAround::491520-524287            1      0.03%     99.76% # Reads before turning the bus around for writes
system.mem_ctrls0.rdPerTurnAround::589824-622591            3      0.10%     99.87% # Reads before turning the bus around for writes
system.mem_ctrls0.rdPerTurnAround::622592-655359            1      0.03%     99.90% # Reads before turning the bus around for writes
system.mem_ctrls0.rdPerTurnAround::655360-688127            1      0.03%     99.93% # Reads before turning the bus around for writes
system.mem_ctrls0.rdPerTurnAround::688128-720895            1      0.03%     99.97% # Reads before turning the bus around for writes
system.mem_ctrls0.rdPerTurnAround::720896-753663            1      0.03%    100.00% # Reads before turning the bus around for writes
system.mem_ctrls0.rdPerTurnAround::total         2978                       # Reads before turning the bus around for writes
system.mem_ctrls0.wrPerTurnAround::samples         2978                       # Writes before turning the bus around for reads
system.mem_ctrls0.wrPerTurnAround::mean     17.922431                       # Writes before turning the bus around for reads
system.mem_ctrls0.wrPerTurnAround::gmean    17.917668                       # Writes before turning the bus around for reads
system.mem_ctrls0.wrPerTurnAround::stdev     0.401994                       # Writes before turning the bus around for reads
system.mem_ctrls0.wrPerTurnAround::16             108      3.63%      3.63% # Writes before turning the bus around for reads
system.mem_ctrls0.wrPerTurnAround::17              31      1.04%      4.67% # Writes before turning the bus around for reads
system.mem_ctrls0.wrPerTurnAround::18            2827     94.93%     99.60% # Writes before turning the bus around for reads
system.mem_ctrls0.wrPerTurnAround::19              11      0.37%     99.97% # Writes before turning the bus around for reads
system.mem_ctrls0.wrPerTurnAround::23               1      0.03%    100.00% # Writes before turning the bus around for reads
system.mem_ctrls0.wrPerTurnAround::total         2978                       # Writes before turning the bus around for reads
system.mem_ctrls0.totQLat                929066153646                       # Total ticks spent queuing
system.mem_ctrls0.totMemAccLat           1555325303646                       # Total ticks spent from burst creation until serviced by the DRAM
system.mem_ctrls0.totBusLat              167002440000                       # Total ticks spent in databus transfers
system.mem_ctrls0.avgQLat                    27815.95                       # Average queueing delay per DRAM burst
system.mem_ctrls0.avgBusLat                   5000.00                       # Average bus latency per DRAM burst
system.mem_ctrls0.avgMemAccLat               46565.95                       # Average memory access latency per DRAM burst
system.mem_ctrls0.avgRdBW                      122.10                       # Average DRAM read bandwidth in MiByte/s
system.mem_ctrls0.avgWrBW                        0.20                       # Average achieved write bandwidth in MiByte/s
system.mem_ctrls0.avgRdBWSys                   122.12                       # Average system read bandwidth in MiByte/s
system.mem_ctrls0.avgWrBWSys                     0.20                       # Average system write bandwidth in MiByte/s
system.mem_ctrls0.peakBW                     12800.00                       # Theoretical peak bandwidth in MiByte/s
system.mem_ctrls0.busUtil                        0.96                       # Data bus utilization in percentage
system.mem_ctrls0.busUtilRead                    0.95                       # Data bus utilization in percentage for reads
system.mem_ctrls0.busUtilWrite                   0.00                       # Data bus utilization in percentage for writes
system.mem_ctrls0.avgRdQLen                      1.00                       # Average read queue length when enqueuing
system.mem_ctrls0.avgWrQLen                     24.20                       # Average write queue length when enqueuing
system.mem_ctrls0.readRowHits                   38759                       # Number of row buffer hits during reads
system.mem_ctrls0.writeRowHits                   7171                       # Number of row buffer hits during writes
system.mem_ctrls0.readRowHitRate                 0.12                       # Row buffer hit rate for reads
system.mem_ctrls0.writeRowHitRate               13.43                       # Row buffer hit rate for writes
system.mem_ctrls0.avgGap                    523220.95                       # Average gap between requests
system.mem_ctrls0.pageHitRate                    0.14                       # Row buffer hit rate, read and write combined
system.mem_ctrls0_0.actEnergy            119236279260                       # Energy for activate commands per rank (pJ)
system.mem_ctrls0_0.preEnergy             63375562635                       # Energy for precharge commands per rank (pJ)
system.mem_ctrls0_0.readEnergy           119207819220                       # Energy for read commands per rank (pJ)
system.mem_ctrls0_0.writeEnergy             142646940                       # Energy for write commands per rank (pJ)
system.mem_ctrls0_0.refreshEnergy        1381993454400.000244                       # Energy for refresh commands per rank (pJ)
system.mem_ctrls0_0.actBackEnergy        573045413670                       # Energy for active background per rank (pJ)
system.mem_ctrls0_0.preBackEnergy         31283015520                       # Energy for precharge background per rank (pJ)
system.mem_ctrls0_0.actPowerDownEnergy   6702044424750                       # Energy for active power-down per rank (pJ)
system.mem_ctrls0_0.prePowerDownEnergy   564530442240                       # Energy for precharge power-down per rank (pJ)
system.mem_ctrls0_0.selfRefreshEnergy       338510610                       # Energy for self refresh per rank (pJ)
system.mem_ctrls0_0.totalEnergy          9555198316875                       # Total energy per rank (pJ)
system.mem_ctrls0_0.averagePower           545.801502                       # Core power per rank (mW)
system.mem_ctrls0_0.totalIdleTime        16168869870000                       # Total Idle time Per DRAM Rank
system.mem_ctrls0_0.memoryStateTime::IDLE  13407823798                       # Time in different power states
system.mem_ctrls0_0.memoryStateTime::REF 584600770000                       # Time in different power states
system.mem_ctrls0_0.memoryStateTime::SREF    984203232                       # Time in different power states
system.mem_ctrls0_0.memoryStateTime::PRE_PDN 1470256631208                       # Time in different power states
system.mem_ctrls0_0.memoryStateTime::ACT 739848605996                       # Time in different power states
system.mem_ctrls0_0.memoryStateTime::ACT_PDN 14697629752637                       # Time in different power states
system.mem_ctrls0_1.actEnergy            119296348080                       # Energy for activate commands per rank (pJ)
system.mem_ctrls0_1.preEnergy             63407508945                       # Energy for precharge commands per rank (pJ)
system.mem_ctrls0_1.readEnergy           119271665100                       # Energy for read commands per rank (pJ)
system.mem_ctrls0_1.writeEnergy             135960120                       # Energy for write commands per rank (pJ)
system.mem_ctrls0_1.refreshEnergy        1381995298320.000244                       # Energy for refresh commands per rank (pJ)
system.mem_ctrls0_1.actBackEnergy        572861172570                       # Energy for active background per rank (pJ)
system.mem_ctrls0_1.preBackEnergy         31315854240                       # Energy for precharge background per rank (pJ)
system.mem_ctrls0_1.actPowerDownEnergy   6734093681370                       # Energy for active power-down per rank (pJ)
system.mem_ctrls0_1.prePowerDownEnergy   537632664480                       # Energy for precharge power-down per rank (pJ)
system.mem_ctrls0_1.selfRefreshEnergy       365826480                       # Energy for self refresh per rank (pJ)
system.mem_ctrls0_1.totalEnergy          9560376735615                       # Total energy per rank (pJ)
system.mem_ctrls0_1.averagePower           546.097298                       # Core power per rank (mW)
system.mem_ctrls0_1.totalIdleTime        16168541703088                       # Total Idle time Per DRAM Rank
system.mem_ctrls0_1.memoryStateTime::IDLE  13444832855                       # Time in different power states
system.mem_ctrls0_1.memoryStateTime::REF 584601622000                       # Time in different power states
system.mem_ctrls0_1.memoryStateTime::SREF   1065544600                       # Time in different power states
system.mem_ctrls0_1.memoryStateTime::PRE_PDN 1399600288212                       # Time in different power states
system.mem_ctrls0_1.memoryStateTime::ACT 740138262834                       # Time in different power states
system.mem_ctrls0_1.memoryStateTime::ACT_PDN 14767877236370                       # Time in different power states
system.mem_ctrls1.pwrStateResidencyTicks::UNDEFINED 179588910949371                       # Cumulative time (in ticks) in various power states
system.mem_ctrls1.bytes_read::cpu.inst            128                       # Number of bytes read from this memory
system.mem_ctrls1.bytes_read::cpu.data             64                       # Number of bytes read from this memory
system.mem_ctrls1.bytes_read::switch_cpus.inst         1088                       # Number of bytes read from this memory
system.mem_ctrls1.bytes_read::switch_cpus.data   1783570240                       # Number of bytes read from this memory
system.mem_ctrls1.bytes_read::switch_cpus_1.inst          320                       # Number of bytes read from this memory
system.mem_ctrls1.bytes_read::switch_cpus_1.data    354675328                       # Number of bytes read from this memory
system.mem_ctrls1.bytes_read::total        2138247168                       # Number of bytes read from this memory
system.mem_ctrls1.bytes_inst_read::cpu.inst          128                       # Number of instructions bytes read from this memory
system.mem_ctrls1.bytes_inst_read::switch_cpus.inst         1088                       # Number of instructions bytes read from this memory
system.mem_ctrls1.bytes_inst_read::switch_cpus_1.inst          320                       # Number of instructions bytes read from this memory
system.mem_ctrls1.bytes_inst_read::total         1536                       # Number of instructions bytes read from this memory
system.mem_ctrls1.bytes_written::writebacks      3451840                       # Number of bytes written to this memory
system.mem_ctrls1.bytes_written::total        3451840                       # Number of bytes written to this memory
system.mem_ctrls1.num_reads::cpu.inst               2                       # Number of read requests responded to by this memory
system.mem_ctrls1.num_reads::cpu.data               1                       # Number of read requests responded to by this memory
system.mem_ctrls1.num_reads::switch_cpus.inst           17                       # Number of read requests responded to by this memory
system.mem_ctrls1.num_reads::switch_cpus.data     27868285                       # Number of read requests responded to by this memory
system.mem_ctrls1.num_reads::switch_cpus_1.inst            5                       # Number of read requests responded to by this memory
system.mem_ctrls1.num_reads::switch_cpus_1.data      5541802                       # Number of read requests responded to by this memory
system.mem_ctrls1.num_reads::total           33410112                       # Number of read requests responded to by this memory
system.mem_ctrls1.num_writes::writebacks        53935                       # Number of write requests responded to by this memory
system.mem_ctrls1.num_writes::total             53935                       # Number of write requests responded to by this memory
system.mem_ctrls1.bw_read::cpu.inst                 7                       # Total read bandwidth from this memory (bytes/s)
system.mem_ctrls1.bw_read::cpu.data                 4                       # Total read bandwidth from this memory (bytes/s)
system.mem_ctrls1.bw_read::switch_cpus.inst           62                       # Total read bandwidth from this memory (bytes/s)
system.mem_ctrls1.bw_read::switch_cpus.data    101879133                       # Total read bandwidth from this memory (bytes/s)
system.mem_ctrls1.bw_read::switch_cpus_1.inst           18                       # Total read bandwidth from this memory (bytes/s)
system.mem_ctrls1.bw_read::switch_cpus_1.data     20259373                       # Total read bandwidth from this memory (bytes/s)
system.mem_ctrls1.bw_read::total            122138597                       # Total read bandwidth from this memory (bytes/s)
system.mem_ctrls1.bw_inst_read::cpu.inst            7                       # Instruction read bandwidth from this memory (bytes/s)
system.mem_ctrls1.bw_inst_read::switch_cpus.inst           62                       # Instruction read bandwidth from this memory (bytes/s)
system.mem_ctrls1.bw_inst_read::switch_cpus_1.inst           18                       # Instruction read bandwidth from this memory (bytes/s)
system.mem_ctrls1.bw_inst_read::total              88                       # Instruction read bandwidth from this memory (bytes/s)
system.mem_ctrls1.bw_write::writebacks         197172                       # Write bandwidth from this memory (bytes/s)
system.mem_ctrls1.bw_write::total              197172                       # Write bandwidth from this memory (bytes/s)
system.mem_ctrls1.bw_total::writebacks         197172                       # Total bandwidth to/from this memory (bytes/s)
system.mem_ctrls1.bw_total::cpu.inst                7                       # Total bandwidth to/from this memory (bytes/s)
system.mem_ctrls1.bw_total::cpu.data                4                       # Total bandwidth to/from this memory (bytes/s)
system.mem_ctrls1.bw_total::switch_cpus.inst           62                       # Total bandwidth to/from this memory (bytes/s)
system.mem_ctrls1.bw_total::switch_cpus.data    101879133                       # Total bandwidth to/from this memory (bytes/s)
system.mem_ctrls1.bw_total::switch_cpus_1.inst           18                       # Total bandwidth to/from this memory (bytes/s)
system.mem_ctrls1.bw_total::switch_cpus_1.data     20259373                       # Total bandwidth to/from this memory (bytes/s)
system.mem_ctrls1.bw_total::total           122335769                       # Total bandwidth to/from this memory (bytes/s)
system.mem_ctrls1.readReqs                   33410112                       # Number of read requests accepted
system.mem_ctrls1.writeReqs                     53935                       # Number of write requests accepted
system.mem_ctrls1.readBursts                 33410112                       # Number of DRAM read bursts, including those serviced by the write queue
system.mem_ctrls1.writeBursts                   53935                       # Number of DRAM write bursts, including those merged in the write queue
system.mem_ctrls1.bytesReadDRAM            2137905280                       # Total number of bytes read from DRAM
system.mem_ctrls1.bytesReadWrQ                 341888                       # Total number of bytes read from write queue
system.mem_ctrls1.bytesWritten                3433472                       # Total number of bytes written to DRAM
system.mem_ctrls1.bytesReadSys             2138247168                       # Total read bytes from the system interface side
system.mem_ctrls1.bytesWrittenSys             3451840                       # Total written bytes from the system interface side
system.mem_ctrls1.servicedByWrQ                  5342                       # Number of DRAM read bursts serviced by the write queue
system.mem_ctrls1.mergedWrBursts                  262                       # Number of DRAM write bursts merged with an existing one
system.mem_ctrls1.neitherReadNorWriteReqs            0                       # Number of requests that are neither read nor write
system.mem_ctrls1.perBankRdBursts::0          2085145                       # Per bank write bursts
system.mem_ctrls1.perBankRdBursts::1          2081546                       # Per bank write bursts
system.mem_ctrls1.perBankRdBursts::2          2090491                       # Per bank write bursts
system.mem_ctrls1.perBankRdBursts::3          2092188                       # Per bank write bursts
system.mem_ctrls1.perBankRdBursts::4          2090546                       # Per bank write bursts
system.mem_ctrls1.perBankRdBursts::5          2088176                       # Per bank write bursts
system.mem_ctrls1.perBankRdBursts::6          2092573                       # Per bank write bursts
system.mem_ctrls1.perBankRdBursts::7          2085715                       # Per bank write bursts
system.mem_ctrls1.perBankRdBursts::8          2096309                       # Per bank write bursts
system.mem_ctrls1.perBankRdBursts::9          2085526                       # Per bank write bursts
system.mem_ctrls1.perBankRdBursts::10         2092365                       # Per bank write bursts
system.mem_ctrls1.perBankRdBursts::11         2084793                       # Per bank write bursts
system.mem_ctrls1.perBankRdBursts::12         2085480                       # Per bank write bursts
system.mem_ctrls1.perBankRdBursts::13         2087901                       # Per bank write bursts
system.mem_ctrls1.perBankRdBursts::14         2087256                       # Per bank write bursts
system.mem_ctrls1.perBankRdBursts::15         2078760                       # Per bank write bursts
system.mem_ctrls1.perBankWrBursts::0             3181                       # Per bank write bursts
system.mem_ctrls1.perBankWrBursts::1             3175                       # Per bank write bursts
system.mem_ctrls1.perBankWrBursts::2             3117                       # Per bank write bursts
system.mem_ctrls1.perBankWrBursts::3             3992                       # Per bank write bursts
system.mem_ctrls1.perBankWrBursts::4             4079                       # Per bank write bursts
system.mem_ctrls1.perBankWrBursts::5             3234                       # Per bank write bursts
system.mem_ctrls1.perBankWrBursts::6             3249                       # Per bank write bursts
system.mem_ctrls1.perBankWrBursts::7             3339                       # Per bank write bursts
system.mem_ctrls1.perBankWrBursts::8             3414                       # Per bank write bursts
system.mem_ctrls1.perBankWrBursts::9             3256                       # Per bank write bursts
system.mem_ctrls1.perBankWrBursts::10            3278                       # Per bank write bursts
system.mem_ctrls1.perBankWrBursts::11            3295                       # Per bank write bursts
system.mem_ctrls1.perBankWrBursts::12            3295                       # Per bank write bursts
system.mem_ctrls1.perBankWrBursts::13            3286                       # Per bank write bursts
system.mem_ctrls1.perBankWrBursts::14            3221                       # Per bank write bursts
system.mem_ctrls1.perBankWrBursts::15            3237                       # Per bank write bursts
system.mem_ctrls1.numRdRetry                        0                       # Number of times read queue was full causing retry
system.mem_ctrls1.numWrRetry                        0                       # Number of times write queue was full causing retry
system.mem_ctrls1.totGap                 17506727576838                       # Total gap between requests
system.mem_ctrls1.readPktSize::0                    0                       # Read request sizes (log2)
system.mem_ctrls1.readPktSize::1                    0                       # Read request sizes (log2)
system.mem_ctrls1.readPktSize::2                    0                       # Read request sizes (log2)
system.mem_ctrls1.readPktSize::3                    0                       # Read request sizes (log2)
system.mem_ctrls1.readPktSize::4                    0                       # Read request sizes (log2)
system.mem_ctrls1.readPktSize::5                    0                       # Read request sizes (log2)
system.mem_ctrls1.readPktSize::6             33410112                       # Read request sizes (log2)
system.mem_ctrls1.writePktSize::0                   0                       # Write request sizes (log2)
system.mem_ctrls1.writePktSize::1                   0                       # Write request sizes (log2)
system.mem_ctrls1.writePktSize::2                   0                       # Write request sizes (log2)
system.mem_ctrls1.writePktSize::3                   0                       # Write request sizes (log2)
system.mem_ctrls1.writePktSize::4                   0                       # Write request sizes (log2)
system.mem_ctrls1.writePktSize::5                   0                       # Write request sizes (log2)
system.mem_ctrls1.writePktSize::6               53935                       # Write request sizes (log2)
system.mem_ctrls1.rdQLenPdf::0               33404433                       # What read queue length does an incoming req see
system.mem_ctrls1.rdQLenPdf::1                    320                       # What read queue length does an incoming req see
system.mem_ctrls1.rdQLenPdf::2                     17                       # What read queue length does an incoming req see
system.mem_ctrls1.rdQLenPdf::3                      0                       # What read queue length does an incoming req see
system.mem_ctrls1.rdQLenPdf::4                      0                       # What read queue length does an incoming req see
system.mem_ctrls1.rdQLenPdf::5                      0                       # What read queue length does an incoming req see
system.mem_ctrls1.rdQLenPdf::6                      0                       # What read queue length does an incoming req see
system.mem_ctrls1.rdQLenPdf::7                      0                       # What read queue length does an incoming req see
system.mem_ctrls1.rdQLenPdf::8                      0                       # What read queue length does an incoming req see
system.mem_ctrls1.rdQLenPdf::9                      0                       # What read queue length does an incoming req see
system.mem_ctrls1.rdQLenPdf::10                     0                       # What read queue length does an incoming req see
system.mem_ctrls1.rdQLenPdf::11                     0                       # What read queue length does an incoming req see
system.mem_ctrls1.rdQLenPdf::12                     0                       # What read queue length does an incoming req see
system.mem_ctrls1.rdQLenPdf::13                     0                       # What read queue length does an incoming req see
system.mem_ctrls1.rdQLenPdf::14                     0                       # What read queue length does an incoming req see
system.mem_ctrls1.rdQLenPdf::15                     0                       # What read queue length does an incoming req see
system.mem_ctrls1.rdQLenPdf::16                     0                       # What read queue length does an incoming req see
system.mem_ctrls1.rdQLenPdf::17                     0                       # What read queue length does an incoming req see
system.mem_ctrls1.rdQLenPdf::18                     0                       # What read queue length does an incoming req see
system.mem_ctrls1.rdQLenPdf::19                     0                       # What read queue length does an incoming req see
system.mem_ctrls1.rdQLenPdf::20                     0                       # What read queue length does an incoming req see
system.mem_ctrls1.rdQLenPdf::21                     0                       # What read queue length does an incoming req see
system.mem_ctrls1.rdQLenPdf::22                     0                       # What read queue length does an incoming req see
system.mem_ctrls1.rdQLenPdf::23                     0                       # What read queue length does an incoming req see
system.mem_ctrls1.rdQLenPdf::24                     0                       # What read queue length does an incoming req see
system.mem_ctrls1.rdQLenPdf::25                     0                       # What read queue length does an incoming req see
system.mem_ctrls1.rdQLenPdf::26                     0                       # What read queue length does an incoming req see
system.mem_ctrls1.rdQLenPdf::27                     0                       # What read queue length does an incoming req see
system.mem_ctrls1.rdQLenPdf::28                     0                       # What read queue length does an incoming req see
system.mem_ctrls1.rdQLenPdf::29                     0                       # What read queue length does an incoming req see
system.mem_ctrls1.rdQLenPdf::30                     0                       # What read queue length does an incoming req see
system.mem_ctrls1.rdQLenPdf::31                     0                       # What read queue length does an incoming req see
system.mem_ctrls1.wrQLenPdf::0                      2                       # What write queue length does an incoming req see
system.mem_ctrls1.wrQLenPdf::1                      2                       # What write queue length does an incoming req see
system.mem_ctrls1.wrQLenPdf::2                      2                       # What write queue length does an incoming req see
system.mem_ctrls1.wrQLenPdf::3                      2                       # What write queue length does an incoming req see
system.mem_ctrls1.wrQLenPdf::4                      2                       # What write queue length does an incoming req see
system.mem_ctrls1.wrQLenPdf::5                      2                       # What write queue length does an incoming req see
system.mem_ctrls1.wrQLenPdf::6                      2                       # What write queue length does an incoming req see
system.mem_ctrls1.wrQLenPdf::7                      2                       # What write queue length does an incoming req see
system.mem_ctrls1.wrQLenPdf::8                      2                       # What write queue length does an incoming req see
system.mem_ctrls1.wrQLenPdf::9                      2                       # What write queue length does an incoming req see
system.mem_ctrls1.wrQLenPdf::10                     2                       # What write queue length does an incoming req see
system.mem_ctrls1.wrQLenPdf::11                     2                       # What write queue length does an incoming req see
system.mem_ctrls1.wrQLenPdf::12                     2                       # What write queue length does an incoming req see
system.mem_ctrls1.wrQLenPdf::13                     2                       # What write queue length does an incoming req see
system.mem_ctrls1.wrQLenPdf::14                     2                       # What write queue length does an incoming req see
system.mem_ctrls1.wrQLenPdf::15                  2859                       # What write queue length does an incoming req see
system.mem_ctrls1.wrQLenPdf::16                  2910                       # What write queue length does an incoming req see
system.mem_ctrls1.wrQLenPdf::17                  2994                       # What write queue length does an incoming req see
system.mem_ctrls1.wrQLenPdf::18                  2992                       # What write queue length does an incoming req see
system.mem_ctrls1.wrQLenPdf::19                  2993                       # What write queue length does an incoming req see
system.mem_ctrls1.wrQLenPdf::20                  2992                       # What write queue length does an incoming req see
system.mem_ctrls1.wrQLenPdf::21                  2993                       # What write queue length does an incoming req see
system.mem_ctrls1.wrQLenPdf::22                  2996                       # What write queue length does an incoming req see
system.mem_ctrls1.wrQLenPdf::23                  2999                       # What write queue length does an incoming req see
system.mem_ctrls1.wrQLenPdf::24                  2992                       # What write queue length does an incoming req see
system.mem_ctrls1.wrQLenPdf::25                  2991                       # What write queue length does an incoming req see
system.mem_ctrls1.wrQLenPdf::26                  2991                       # What write queue length does an incoming req see
system.mem_ctrls1.wrQLenPdf::27                  2991                       # What write queue length does an incoming req see
system.mem_ctrls1.wrQLenPdf::28                  2990                       # What write queue length does an incoming req see
system.mem_ctrls1.wrQLenPdf::29                  2990                       # What write queue length does an incoming req see
system.mem_ctrls1.wrQLenPdf::30                  2990                       # What write queue length does an incoming req see
system.mem_ctrls1.wrQLenPdf::31                  2990                       # What write queue length does an incoming req see
system.mem_ctrls1.wrQLenPdf::32                  2990                       # What write queue length does an incoming req see
system.mem_ctrls1.wrQLenPdf::33                     0                       # What write queue length does an incoming req see
system.mem_ctrls1.wrQLenPdf::34                     0                       # What write queue length does an incoming req see
system.mem_ctrls1.wrQLenPdf::35                     0                       # What write queue length does an incoming req see
system.mem_ctrls1.wrQLenPdf::36                     0                       # What write queue length does an incoming req see
system.mem_ctrls1.wrQLenPdf::37                     0                       # What write queue length does an incoming req see
system.mem_ctrls1.wrQLenPdf::38                     0                       # What write queue length does an incoming req see
system.mem_ctrls1.wrQLenPdf::39                     0                       # What write queue length does an incoming req see
system.mem_ctrls1.wrQLenPdf::40                     0                       # What write queue length does an incoming req see
system.mem_ctrls1.wrQLenPdf::41                     0                       # What write queue length does an incoming req see
system.mem_ctrls1.wrQLenPdf::42                     0                       # What write queue length does an incoming req see
system.mem_ctrls1.wrQLenPdf::43                     0                       # What write queue length does an incoming req see
system.mem_ctrls1.wrQLenPdf::44                     0                       # What write queue length does an incoming req see
system.mem_ctrls1.wrQLenPdf::45                     0                       # What write queue length does an incoming req see
system.mem_ctrls1.wrQLenPdf::46                     0                       # What write queue length does an incoming req see
system.mem_ctrls1.wrQLenPdf::47                     0                       # What write queue length does an incoming req see
system.mem_ctrls1.wrQLenPdf::48                     0                       # What write queue length does an incoming req see
system.mem_ctrls1.wrQLenPdf::49                     0                       # What write queue length does an incoming req see
system.mem_ctrls1.wrQLenPdf::50                     0                       # What write queue length does an incoming req see
system.mem_ctrls1.wrQLenPdf::51                     0                       # What write queue length does an incoming req see
system.mem_ctrls1.wrQLenPdf::52                     0                       # What write queue length does an incoming req see
system.mem_ctrls1.wrQLenPdf::53                     0                       # What write queue length does an incoming req see
system.mem_ctrls1.wrQLenPdf::54                     0                       # What write queue length does an incoming req see
system.mem_ctrls1.wrQLenPdf::55                     0                       # What write queue length does an incoming req see
system.mem_ctrls1.wrQLenPdf::56                     0                       # What write queue length does an incoming req see
system.mem_ctrls1.wrQLenPdf::57                     0                       # What write queue length does an incoming req see
system.mem_ctrls1.wrQLenPdf::58                     0                       # What write queue length does an incoming req see
system.mem_ctrls1.wrQLenPdf::59                     0                       # What write queue length does an incoming req see
system.mem_ctrls1.wrQLenPdf::60                     0                       # What write queue length does an incoming req see
system.mem_ctrls1.wrQLenPdf::61                     0                       # What write queue length does an incoming req see
system.mem_ctrls1.wrQLenPdf::62                     0                       # What write queue length does an incoming req see
system.mem_ctrls1.wrQLenPdf::63                     0                       # What write queue length does an incoming req see
system.mem_ctrls1.bytesPerActivate::samples     33412584                       # Bytes accessed per row activation
system.mem_ctrls1.bytesPerActivate::mean    64.087781                       # Bytes accessed per row activation
system.mem_ctrls1.bytesPerActivate::gmean    64.050711                       # Bytes accessed per row activation
system.mem_ctrls1.bytesPerActivate::stdev     3.490765                       # Bytes accessed per row activation
system.mem_ctrls1.bytesPerActivate::0-127     33381653     99.91%     99.91% # Bytes accessed per row activation
system.mem_ctrls1.bytesPerActivate::128-255        27481      0.08%     99.99% # Bytes accessed per row activation
system.mem_ctrls1.bytesPerActivate::256-383         2746      0.01%    100.00% # Bytes accessed per row activation
system.mem_ctrls1.bytesPerActivate::384-511          541      0.00%    100.00% # Bytes accessed per row activation
system.mem_ctrls1.bytesPerActivate::512-639          116      0.00%    100.00% # Bytes accessed per row activation
system.mem_ctrls1.bytesPerActivate::640-767           38      0.00%    100.00% # Bytes accessed per row activation
system.mem_ctrls1.bytesPerActivate::768-895            6      0.00%    100.00% # Bytes accessed per row activation
system.mem_ctrls1.bytesPerActivate::896-1023            2      0.00%    100.00% # Bytes accessed per row activation
system.mem_ctrls1.bytesPerActivate::1024-1151            1      0.00%    100.00% # Bytes accessed per row activation
system.mem_ctrls1.bytesPerActivate::total     33412584                       # Bytes accessed per row activation
system.mem_ctrls1.rdPerTurnAround::samples         2991                       # Reads before turning the bus around for writes
system.mem_ctrls1.rdPerTurnAround::mean  11126.046473                       # Reads before turning the bus around for writes
system.mem_ctrls1.rdPerTurnAround::gmean   277.573131                       # Reads before turning the bus around for writes
system.mem_ctrls1.rdPerTurnAround::stdev 51776.011877                       # Reads before turning the bus around for writes
system.mem_ctrls1.rdPerTurnAround::0-32767         2794     93.41%     93.41% # Reads before turning the bus around for writes
system.mem_ctrls1.rdPerTurnAround::32768-65535           61      2.04%     95.45% # Reads before turning the bus around for writes
system.mem_ctrls1.rdPerTurnAround::65536-98303           44      1.47%     96.92% # Reads before turning the bus around for writes
system.mem_ctrls1.rdPerTurnAround::98304-131071           21      0.70%     97.63% # Reads before turning the bus around for writes
system.mem_ctrls1.rdPerTurnAround::131072-163839           19      0.64%     98.26% # Reads before turning the bus around for writes
system.mem_ctrls1.rdPerTurnAround::163840-196607            9      0.30%     98.56% # Reads before turning the bus around for writes
system.mem_ctrls1.rdPerTurnAround::196608-229375            7      0.23%     98.80% # Reads before turning the bus around for writes
system.mem_ctrls1.rdPerTurnAround::229376-262143            4      0.13%     98.93% # Reads before turning the bus around for writes
system.mem_ctrls1.rdPerTurnAround::262144-294911            7      0.23%     99.16% # Reads before turning the bus around for writes
system.mem_ctrls1.rdPerTurnAround::294912-327679            4      0.13%     99.30% # Reads before turning the bus around for writes
system.mem_ctrls1.rdPerTurnAround::327680-360447            1      0.03%     99.33% # Reads before turning the bus around for writes
system.mem_ctrls1.rdPerTurnAround::360448-393215            5      0.17%     99.50% # Reads before turning the bus around for writes
system.mem_ctrls1.rdPerTurnAround::393216-425983            1      0.03%     99.53% # Reads before turning the bus around for writes
system.mem_ctrls1.rdPerTurnAround::425984-458751            3      0.10%     99.63% # Reads before turning the bus around for writes
system.mem_ctrls1.rdPerTurnAround::458752-491519            2      0.07%     99.70% # Reads before turning the bus around for writes
system.mem_ctrls1.rdPerTurnAround::491520-524287            1      0.03%     99.73% # Reads before turning the bus around for writes
system.mem_ctrls1.rdPerTurnAround::524288-557055            3      0.10%     99.83% # Reads before turning the bus around for writes
system.mem_ctrls1.rdPerTurnAround::557056-589823            1      0.03%     99.87% # Reads before turning the bus around for writes
system.mem_ctrls1.rdPerTurnAround::589824-622591            1      0.03%     99.90% # Reads before turning the bus around for writes
system.mem_ctrls1.rdPerTurnAround::655360-688127            1      0.03%     99.93% # Reads before turning the bus around for writes
system.mem_ctrls1.rdPerTurnAround::720896-753663            1      0.03%     99.97% # Reads before turning the bus around for writes
system.mem_ctrls1.rdPerTurnAround::786432-819199            1      0.03%    100.00% # Reads before turning the bus around for writes
system.mem_ctrls1.rdPerTurnAround::total         2991                       # Reads before turning the bus around for writes
system.mem_ctrls1.wrPerTurnAround::samples         2991                       # Writes before turning the bus around for reads
system.mem_ctrls1.wrPerTurnAround::mean     17.936476                       # Writes before turning the bus around for reads
system.mem_ctrls1.wrPerTurnAround::gmean    17.931999                       # Writes before turning the bus around for reads
system.mem_ctrls1.wrPerTurnAround::stdev     0.401473                       # Writes before turning the bus around for reads
system.mem_ctrls1.wrPerTurnAround::16              83      2.77%      2.77% # Writes before turning the bus around for reads
system.mem_ctrls1.wrPerTurnAround::17              48      1.60%      4.38% # Writes before turning the bus around for reads
system.mem_ctrls1.wrPerTurnAround::18            2845     95.12%     99.50% # Writes before turning the bus around for reads
system.mem_ctrls1.wrPerTurnAround::19              14      0.47%     99.97% # Writes before turning the bus around for reads
system.mem_ctrls1.wrPerTurnAround::28               1      0.03%    100.00% # Writes before turning the bus around for reads
system.mem_ctrls1.wrPerTurnAround::total         2991                       # Writes before turning the bus around for reads
system.mem_ctrls1.totQLat                950537442217                       # Total ticks spent queuing
system.mem_ctrls1.totMemAccLat           1576876879717                       # Total ticks spent from burst creation until serviced by the DRAM
system.mem_ctrls1.totBusLat              167023850000                       # Total ticks spent in databus transfers
system.mem_ctrls1.avgQLat                    28455.14                       # Average queueing delay per DRAM burst
system.mem_ctrls1.avgBusLat                   5000.00                       # Average bus latency per DRAM burst
system.mem_ctrls1.avgMemAccLat               47205.14                       # Average memory access latency per DRAM burst
system.mem_ctrls1.avgRdBW                      122.12                       # Average DRAM read bandwidth in MiByte/s
system.mem_ctrls1.avgWrBW                        0.20                       # Average achieved write bandwidth in MiByte/s
system.mem_ctrls1.avgRdBWSys                   122.14                       # Average system read bandwidth in MiByte/s
system.mem_ctrls1.avgWrBWSys                     0.20                       # Average system write bandwidth in MiByte/s
system.mem_ctrls1.peakBW                     12800.00                       # Theoretical peak bandwidth in MiByte/s
system.mem_ctrls1.busUtil                        0.96                       # Data bus utilization in percentage
system.mem_ctrls1.busUtilRead                    0.95                       # Data bus utilization in percentage for reads
system.mem_ctrls1.busUtilWrite                   0.00                       # Data bus utilization in percentage for writes
system.mem_ctrls1.avgRdQLen                      1.00                       # Average read queue length when enqueuing
system.mem_ctrls1.avgWrQLen                     24.05                       # Average write queue length when enqueuing
system.mem_ctrls1.readRowHits                   38667                       # Number of row buffer hits during reads
system.mem_ctrls1.writeRowHits                   7161                       # Number of row buffer hits during writes
system.mem_ctrls1.readRowHitRate                 0.12                       # Row buffer hit rate for reads
system.mem_ctrls1.writeRowHitRate               13.34                       # Row buffer hit rate for writes
system.mem_ctrls1.avgGap                    523150.34                       # Average gap between requests
system.mem_ctrls1.pageHitRate                    0.14                       # Row buffer hit rate, read and write combined
system.mem_ctrls1_0.actEnergy            119313941040                       # Energy for activate commands per rank (pJ)
system.mem_ctrls1_0.preEnergy             63416859825                       # Energy for precharge commands per rank (pJ)
system.mem_ctrls1_0.readEnergy           119283553200                       # Energy for read commands per rank (pJ)
system.mem_ctrls1_0.writeEnergy             142850520                       # Energy for write commands per rank (pJ)
system.mem_ctrls1_0.refreshEnergy        1381985464080.000244                       # Energy for refresh commands per rank (pJ)
system.mem_ctrls1_0.actBackEnergy        572440136940                       # Energy for active background per rank (pJ)
system.mem_ctrls1_0.preBackEnergy         31262300640                       # Energy for precharge background per rank (pJ)
system.mem_ctrls1_0.actPowerDownEnergy   6733081914270                       # Energy for active power-down per rank (pJ)
system.mem_ctrls1_0.prePowerDownEnergy   538873419360                       # Energy for precharge power-down per rank (pJ)
system.mem_ctrls1_0.selfRefreshEnergy       372322065                       # Energy for self refresh per rank (pJ)
system.mem_ctrls1_0.totalEnergy          9560173253490                       # Total energy per rank (pJ)
system.mem_ctrls1_0.averagePower           546.085675                       # Core power per rank (mW)
system.mem_ctrls1_0.totalIdleTime        16168352689617                       # Total Idle time Per DRAM Rank
system.mem_ctrls1_0.memoryStateTime::IDLE  13406024674                       # Time in different power states
system.mem_ctrls1_0.memoryStateTime::REF 584597432000                       # Time in different power states
system.mem_ctrls1_0.memoryStateTime::SREF   1116552426                       # Time in different power states
system.mem_ctrls1_0.memoryStateTime::PRE_PDN 1402636319774                       # Time in different power states
system.mem_ctrls1_0.memoryStateTime::ACT 740369644450                       # Time in different power states
system.mem_ctrls1_0.memoryStateTime::ACT_PDN 14764601813547                       # Time in different power states
system.mem_ctrls1_1.actEnergy            119251951560                       # Energy for activate commands per rank (pJ)
system.mem_ctrls1_1.preEnergy             63383896455                       # Energy for precharge commands per rank (pJ)
system.mem_ctrls1_1.readEnergy           119226504600                       # Energy for read commands per rank (pJ)
system.mem_ctrls1_1.writeEnergy             137192040                       # Energy for write commands per rank (pJ)
system.mem_ctrls1_1.refreshEnergy        1381979317680.000244                       # Energy for refresh commands per rank (pJ)
system.mem_ctrls1_1.actBackEnergy        573223118580                       # Energy for active background per rank (pJ)
system.mem_ctrls1_1.preBackEnergy         31119582720                       # Energy for precharge background per rank (pJ)
system.mem_ctrls1_1.actPowerDownEnergy   6731133129870                       # Energy for active power-down per rank (pJ)
system.mem_ctrls1_1.prePowerDownEnergy   539982538080                       # Energy for precharge power-down per rank (pJ)
system.mem_ctrls1_1.selfRefreshEnergy       379082355                       # Energy for self refresh per rank (pJ)
system.mem_ctrls1_1.totalEnergy          9559816905510                       # Total energy per rank (pJ)
system.mem_ctrls1_1.averagePower           546.065320                       # Core power per rank (mW)
system.mem_ctrls1_1.totalIdleTime        16168697642531                       # Total Idle time Per DRAM Rank
system.mem_ctrls1_1.memoryStateTime::IDLE  13387269679                       # Time in different power states
system.mem_ctrls1_1.memoryStateTime::REF 584594796000                       # Time in different power states
system.mem_ctrls1_1.memoryStateTime::SREF   1156268553                       # Time in different power states
system.mem_ctrls1_1.memoryStateTime::PRE_PDN 1406958780267                       # Time in different power states
system.mem_ctrls1_1.memoryStateTime::ACT 740047922356                       # Time in different power states
system.mem_ctrls1_1.memoryStateTime::ACT_PDN 14760582750016                       # Time in different power states
system.pwrStateResidencyTicks::UNDEFINED 179588910949371                       # Cumulative time (in ticks) in various power states
system.cpu.branchPred.lookups                      14                       # Number of BP lookups
system.cpu.branchPred.condPredicted                14                       # Number of conditional branches predicted
system.cpu.branchPred.condIncorrect                 4                       # Number of conditional branches incorrect
system.cpu.branchPred.BTBLookups                    0                       # Number of BTB lookups
system.cpu.branchPred.BTBHits                       0                       # Number of BTB hits
system.cpu.branchPred.BTBCorrect                    0                       # Number of correct BTB predictions (this stat may not work properly.
system.cpu.branchPred.BTBHitPct                   nan                       # BTB Hit Percentage
system.cpu.branchPred.usedRAS                       0                       # Number of times the RAS was used to get a target.
system.cpu.branchPred.RASInCorrect                  0                       # Number of incorrect RAS predictions.
system.cpu.branchPred.indirectLookups               0                       # Number of indirect predictor lookups.
system.cpu.branchPred.indirectHits                  0                       # Number of indirect target hits.
system.cpu.branchPred.indirectMisses                0                       # Number of indirect misses.
system.cpu.branchPredindirectMispredicted            0                       # Number of mispredicted indirect branches.
system.cpu_voltage_domain.voltage                   1                       # Voltage in Volts
system.cpu_clk_domain.clock                       333                       # Clock period in ticks
system.cpu.dtb.fetch_hits                           0                       # ITB hits
system.cpu.dtb.fetch_misses                         0                       # ITB misses
system.cpu.dtb.fetch_acv                            0                       # ITB acv
system.cpu.dtb.fetch_accesses                       0                       # ITB accesses
system.cpu.dtb.read_hits                            1                       # DTB read hits
system.cpu.dtb.read_misses                         11                       # DTB read misses
system.cpu.dtb.read_acv                             0                       # DTB read access violations
system.cpu.dtb.read_accesses                       12                       # DTB read accesses
system.cpu.dtb.write_hits                           0                       # DTB write hits
system.cpu.dtb.write_misses                         0                       # DTB write misses
system.cpu.dtb.write_acv                            0                       # DTB write access violations
[...]
system.switch_cpus_1.iq.FU_type_0::total   1853166892                       # Type of FU issued
system.switch_cpus_1.iq.rate                 0.201481                       # Inst issue rate
system.switch_cpus_1.iq.fu_busy_cnt              4360                       # FU busy when requested
system.switch_cpus_1.iq.fu_busy_rate         0.000002                       # FU busy rate (busy events/executed inst)
system.switch_cpus_1.iq.int_inst_queue_reads  12904080527                       # Number of integer instruction queue reads
system.switch_cpus_1.iq.int_inst_queue_writes   6295549691                       # Number of integer instruction queue writes
system.switch_cpus_1.iq.int_inst_queue_wakeup_accesses   1164801576                       # Number of integer instruction queue wakeup accesses
system.switch_cpus_1.iq.fp_inst_queue_reads            0                       # Number of floating instruction queue reads
system.switch_cpus_1.iq.fp_inst_queue_writes            0                       # Number of floating instruction queue writes
system.switch_cpus_1.iq.fp_inst_queue_wakeup_accesses            0                       # Number of floating instruction queue wakeup accesses
system.switch_cpus_1.iq.int_alu_accesses   1853171252                       # Number of integer alu accesses
system.switch_cpus_1.iq.fp_alu_accesses             0                       # Number of floating point alu accesses
system.switch_cpus_1.iew.lsq.thread0.forwLoads          951                       # Number of loads that had data forwarded from stores
system.switch_cpus_1.iew.lsq.thread0.invAddrLoads            0                       # Number of loads ignored due to an invalid address
system.switch_cpus_1.iew.lsq.thread0.squashedLoads   1004043227                       # Number of loads squashed
system.switch_cpus_1.iew.lsq.thread0.ignoredResponses           19                       # Number of memory responses ignored because the instruction is squashed
system.switch_cpus_1.iew.lsq.thread0.memOrderViolation           38                       # Number of memory ordering violations
system.switch_cpus_1.iew.lsq.thread0.squashedStores       136253                       # Number of stores squashed
system.switch_cpus_1.iew.lsq.thread0.invAddrSwpfs            0                       # Number of software prefetches ignored due to an invalid address
system.switch_cpus_1.iew.lsq.thread0.blockedLoads            0                       # Number of blocked loads due to partial load-store forwarding
system.switch_cpus_1.iew.lsq.thread0.rescheduledLoads            0                       # Number of loads that were rescheduled
system.switch_cpus_1.iew.lsq.thread0.cacheBlocked         7608                       # Number of times an access to memory failed due to the cache being blocked
system.switch_cpus_1.iew.iewIdleCycles              0                       # Number of cycles IEW is idle
system.switch_cpus_1.iew.iewSquashCycles     33186879                       # Number of cycles IEW is squashing
system.switch_cpus_1.iew.iewBlockCycles    8061488605                       # Number of cycles IEW is blocking
system.switch_cpus_1.iew.iewUnblockCycles     40778934                       # Number of cycles IEW is unblocking
system.switch_cpus_1.iew.iewDispatchedInsts   3247793492                       # Number of instructions dispatched to IQ
system.switch_cpus_1.iew.iewDispSquashedInsts         4527                       # Number of squashed instructions skipped by dispatch
system.switch_cpus_1.iew.iewDispLoadInsts   1068297408                       # Number of dispatched load instructions
system.switch_cpus_1.iew.iewDispStoreInsts       148580                       # Number of dispatched store instructions
system.switch_cpus_1.iew.iewDispNonSpecInsts            0                       # Number of dispatched non-speculative instructions
system.switch_cpus_1.iew.iewIQFullEvents     19171791                       # Number of times the IQ has become full, causing a stall
system.switch_cpus_1.iew.iewLSQFullEvents      3734631                       # Number of times the LSQ has become full, causing a stall
system.switch_cpus_1.iew.memOrderViolationEvents           38                       # Number of memory order violations
system.switch_cpus_1.iew.predictedTakenIncorrect      1685579                       # Number of branches that were predicted taken incorrectly
system.switch_cpus_1.iew.predictedNotTakenIncorrect      2826062                       # Number of branches that were predicted not taken incorrectly
system.switch_cpus_1.iew.branchMispredicts      4511641                       # Number of branch mispredicts detected at execute
system.switch_cpus_1.iew.iewExecutedInsts   1848986972                       # Number of executed instructions
system.switch_cpus_1.iew.iewExecLoadInsts    748518036                       # Number of load instructions executed
system.switch_cpus_1.iew.iewExecSquashedInsts      4179918                       # Number of squashed instructions skipped in execute
system.switch_cpus_1.iew.exec_swp                   0                       # number of swp insts executed
system.switch_cpus_1.iew.exec_nop               18616                       # number of nop insts executed
system.switch_cpus_1.iew.exec_refs          748540432                       # number of memory reference insts executed
system.switch_cpus_1.iew.exec_branches      219707261                       # Number of branches executed
system.switch_cpus_1.iew.exec_stores            22396                       # Number of stores executed
system.switch_cpus_1.iew.exec_rate           0.201026                       # Inst execution rate
system.switch_cpus_1.iew.wb_sent           1848072360                       # cumulative count of insts sent to commit
system.switch_cpus_1.iew.wb_count          1164801576                       # cumulative count of insts written-back
system.switch_cpus_1.iew.wb_producers       670547020                       # num instructions producing a value
system.switch_cpus_1.iew.wb_consumers       923451971                       # num instructions consuming a value
system.switch_cpus_1.iew.wb_rate             0.126640                       # insts written-back per cycle
system.switch_cpus_1.iew.wb_fanout           0.726131                       # average fanout of values written-back
system.switch_cpus_1.commit.commitSquashedInsts   2816159593                       # The number of squashed insts skipped by commit
system.switch_cpus_1.commit.branchMispredicts      4334000                       # The number of times a branch was mispredicted
system.switch_cpus_1.commit.committed_per_cycle::samples   8833127981                       # Number of insts commited each cycle
system.switch_cpus_1.commit.committed_per_cycle::mean     0.022642                       # Number of insts commited each cycle
system.switch_cpus_1.commit.committed_per_cycle::stdev     0.282104                       # Number of insts commited each cycle
system.switch_cpus_1.commit.committed_per_cycle::underflows            0      0.00%      0.00% # Number of insts commited each cycle
system.switch_cpus_1.commit.committed_per_cycle::0   8730800939     98.84%     98.84% # Number of insts commited each cycle
system.switch_cpus_1.commit.committed_per_cycle::1     55551661      0.63%     99.47% # Number of insts commited each cycle
system.switch_cpus_1.commit.committed_per_cycle::2     32104144      0.36%     99.83% # Number of insts commited each cycle
system.switch_cpus_1.commit.committed_per_cycle::3      6061575      0.07%     99.90% # Number of insts commited each cycle
system.switch_cpus_1.commit.committed_per_cycle::4      1675370      0.02%     99.92% # Number of insts commited each cycle
system.switch_cpus_1.commit.committed_per_cycle::5        24195      0.00%     99.92% # Number of insts commited each cycle
system.switch_cpus_1.commit.committed_per_cycle::6         3192      0.00%     99.92% # Number of insts commited each cycle
system.switch_cpus_1.commit.committed_per_cycle::7        39792      0.00%     99.92% # Number of insts commited each cycle
system.switch_cpus_1.commit.committed_per_cycle::8      6867113      0.08%    100.00% # Number of insts commited each cycle
system.switch_cpus_1.commit.committed_per_cycle::overflows            0      0.00%    100.00% # Number of insts commited each cycle
system.switch_cpus_1.commit.committed_per_cycle::min_value            0                       # Number of insts commited each cycle
system.switch_cpus_1.commit.committed_per_cycle::max_value            8                       # Number of insts commited each cycle
system.switch_cpus_1.commit.committed_per_cycle::total   8833127981                       # Number of insts commited each cycle
system.switch_cpus_1.commit.committedInsts    200001729                       # Number of instructions committed
system.switch_cpus_1.commit.committedOps    200001729                       # Number of ops (including micro ops) committed
system.switch_cpus_1.commit.swp_count               0                       # Number of s/w prefetches committed
system.switch_cpus_1.commit.refs             64266478                       # Number of memory references committed
system.switch_cpus_1.commit.loads            64254151                       # Number of loads committed
system.switch_cpus_1.commit.membars                 0                       # Number of memory barriers committed
system.switch_cpus_1.commit.branches         49624817                       # Number of branches committed
system.switch_cpus_1.commit.fp_insts                0                       # Number of committed floating point instructions.
system.switch_cpus_1.commit.int_insts       199961763                       # Number of committed integer instructions.
system.switch_cpus_1.commit.function_calls          438                       # Number of function calls committed.
system.switch_cpus_1.commit.op_class_0::No_OpClass         1722      0.00%      0.00% # Class of committed instruction
system.switch_cpus_1.commit.op_class_0::IntAlu    135733506     67.87%     67.87% # Class of committed instruction
system.switch_cpus_1.commit.op_class_0::IntMult           23      0.00%     67.87% # Class of committed instruction
system.switch_cpus_1.commit.op_class_0::IntDiv            0      0.00%     67.87% # Class of committed instruction
system.switch_cpus_1.commit.op_class_0::FloatAdd            0      0.00%     67.87% # Class of committed instruction
system.switch_cpus_1.commit.op_class_0::FloatCmp            0      0.00%     67.87% # Class of committed instruction
system.switch_cpus_1.commit.op_class_0::FloatCvt            0      0.00%     67.87% # Class of committed instruction
system.switch_cpus_1.commit.op_class_0::FloatMult            0      0.00%     67.87% # Class of committed instruction
system.switch_cpus_1.commit.op_class_0::FloatMultAcc            0      0.00%     67.87% # Class of committed instruction
system.switch_cpus_1.commit.op_class_0::FloatDiv            0      0.00%     67.87% # Class of committed instruction
system.switch_cpus_1.commit.op_class_0::FloatMisc            0      0.00%     67.87% # Class of committed instruction
system.switch_cpus_1.commit.op_class_0::FloatSqrt            0      0.00%     67.87% # Class of committed instruction
system.switch_cpus_1.commit.op_class_0::SimdAdd            0      0.00%     67.87% # Class of committed instruction
system.switch_cpus_1.commit.op_class_0::SimdAddAcc            0      0.00%     67.87% # Class of committed instruction
system.switch_cpus_1.commit.op_class_0::SimdAlu            0      0.00%     67.87% # Class of committed instruction
system.switch_cpus_1.commit.op_class_0::SimdCmp            0      0.00%     67.87% # Class of committed instruction
system.switch_cpus_1.commit.op_class_0::SimdCvt            0      0.00%     67.87% # Class of committed instruction
system.switch_cpus_1.commit.op_class_0::SimdMisc            0      0.00%     67.87% # Class of committed instruction
system.switch_cpus_1.commit.op_class_0::SimdMult            0      0.00%     67.87% # Class of committed instruction
system.switch_cpus_1.commit.op_class_0::SimdMultAcc            0      0.00%     67.87% # Class of committed instruction
system.switch_cpus_1.commit.op_class_0::SimdShift            0      0.00%     67.87% # Class of committed instruction
system.switch_cpus_1.commit.op_class_0::SimdShiftAcc            0      0.00%     67.87% # Class of committed instruction
system.switch_cpus_1.commit.op_class_0::SimdSqrt            0      0.00%     67.87% # Class of committed instruction
system.switch_cpus_1.commit.op_class_0::SimdFloatAdd            0      0.00%     67.87% # Class of committed instruction
system.switch_cpus_1.commit.op_class_0::SimdFloatAlu            0      0.00%     67.87% # Class of committed instruction
system.switch_cpus_1.commit.op_class_0::SimdFloatCmp            0      0.00%     67.87% # Class of committed instruction
system.switch_cpus_1.commit.op_class_0::SimdFloatCvt            0      0.00%     67.87% # Class of committed instruction
system.switch_cpus_1.commit.op_class_0::SimdFloatDiv            0      0.00%     67.87% # Class of committed instruction
system.switch_cpus_1.commit.op_class_0::SimdFloatMisc            0      0.00%     67.87% # Class of committed instruction
system.switch_cpus_1.commit.op_class_0::SimdFloatMult            0      0.00%     67.87% # Class of committed instruction
system.switch_cpus_1.commit.op_class_0::SimdFloatMultAcc            0      0.00%     67.87% # Class of committed instruction
system.switch_cpus_1.commit.op_class_0::SimdFloatSqrt            0      0.00%     67.87% # Class of committed instruction
system.switch_cpus_1.commit.op_class_0::MemRead     64254151     32.13%     99.99% # Class of committed instruction
system.switch_cpus_1.commit.op_class_0::MemWrite        12327      0.01%    100.00% # Class of committed instruction
system.switch_cpus_1.commit.op_class_0::FloatMemRead            0      0.00%    100.00% # Class of committed instruction
system.switch_cpus_1.commit.op_class_0::FloatMemWrite            0      0.00%    100.00% # Class of committed instruction
system.switch_cpus_1.commit.op_class_0::IprAccess            0      0.00%    100.00% # Class of committed instruction
system.switch_cpus_1.commit.op_class_0::InstPrefetch            0      0.00%    100.00% # Class of committed instruction
system.switch_cpus_1.commit.op_class_0::total    200001729                       # Class of committed instruction
system.switch_cpus_1.commit.bw_lim_events      6867113                       # number cycles where commit BW limit reached
system.switch_cpus_1.rob.rob_reads        11467335179                       # The number of ROB reads
system.switch_cpus_1.rob.rob_writes        6396936724                       # The number of ROB writes
system.switch_cpus_1.timesIdled                    14                       # Number of times that the entire CPU went into an idle state and unscheduled itself
system.switch_cpus_1.idleCycles                  1488                       # Total number of cycles that the CPU has spent unscheduled due to idling
system.switch_cpus_1.committedInsts         200000007                       # Number of Instructions Simulated
system.switch_cpus_1.committedOps           200000007                       # Number of Ops (including micro ops) Simulated
system.switch_cpus_1.cpi                    45.988715                       # CPI: Cycles Per Instruction
system.switch_cpus_1.cpi_total              45.988715                       # CPI: Total CPI of All Threads
system.switch_cpus_1.ipc                     0.021744                       # IPC: Instructions Per Cycle
system.switch_cpus_1.ipc_total               0.021744                       # IPC: Total IPC of All Threads
system.switch_cpus_1.int_regfile_reads     2717207345                       # number of integer regfile reads
system.switch_cpus_1.int_regfile_writes     945101352                       # number of integer regfile writes
system.switch_cpus_1.fp_regfile_writes             32                       # number of floating regfile writes
system.tol3bus.snoop_filter.tot_requests    284833434                       # Total number of requests made to the snoop filter.
system.tol3bus.snoop_filter.hit_single_requests    142414951                       # Number of requests hitting in the snoop filter with a single holder of the requested data.
system.tol3bus.snoop_filter.hit_multi_requests            0                       # Number of requests hitting in the snoop filter with multiple (>1) holders of the requested data.
system.tol3bus.snoop_filter.tot_snoops         171671                       # Total number of snoops made to the snoop filter.
system.tol3bus.snoop_filter.hit_single_snoops       171671                       # Number of snoops hitting in the snoop filter with a single holder of the requested data.
system.tol3bus.snoop_filter.hit_multi_snoops            0                       # Number of snoops hitting in the snoop filter with multiple (>1) holders of the requested data.
system.tol3bus.pwrStateResidencyTicks::UNDEFINED 179588910949371                       # Cumulative time (in ticks) in various power states
system.tol3bus.trans_dist::ReadResp         142404626                       # Transaction distribution
system.tol3bus.trans_dist::WritebackDirty      8611799                       # Transaction distribution
system.tol3bus.trans_dist::CleanEvict       200554421                       # Transaction distribution
system.tol3bus.trans_dist::ReadExReq            13857                       # Transaction distribution
system.tol3bus.trans_dist::ReadExResp           13857                       # Transaction distribution
system.tol3bus.trans_dist::ReadSharedReq    142404626                       # Transaction distribution
system.tol3bus.pkt_count_system.cpu.l2.mem_side::system.l3.cpu_side    427251917                       # Packet count per connected master and slave (bytes)
system.tol3bus.pkt_size_system.cpu.l2.mem_side::system.l3.cpu_side   9659052032                       # Cumulative packet size per connected master and slave (bytes)
system.tol3bus.snoops                        66751269                       # Total snoops (count)
system.tol3bus.snoopTraffic                   6886016                       # Total snoop traffic (bytes)
system.tol3bus.snoop_fanout::samples        209169752                       # Request fanout histogram
system.tol3bus.snoop_fanout::mean            0.000821                       # Request fanout histogram
system.tol3bus.snoop_fanout::stdev           0.028637                       # Request fanout histogram
system.tol3bus.snoop_fanout::underflows             0      0.00%      0.00% # Request fanout histogram
system.tol3bus.snoop_fanout::0              208998081     99.92%     99.92% # Request fanout histogram
system.tol3bus.snoop_fanout::1                 171671      0.08%    100.00% # Request fanout histogram
system.tol3bus.snoop_fanout::overflows              0      0.00%    100.00% # Request fanout histogram
system.tol3bus.snoop_fanout::min_value              0                       # Request fanout histogram
system.tol3bus.snoop_fanout::max_value              1                       # Request fanout histogram
system.tol3bus.snoop_fanout::total          209169752                       # Request fanout histogram
system.tol3bus.reqLayer0.occupancy        97681433787                       # Layer occupancy (ticks)
system.tol3bus.reqLayer0.utilization              0.6                       # Layer utilization (%)
system.tol3bus.respLayer0.occupancy       94850709678                       # Layer occupancy (ticks)
system.tol3bus.respLayer0.utilization             0.5                       # Layer utilization (%)

---------- End Simulation Statistics   ----------
