
---------- Begin Simulation Statistics ----------
sim_seconds                                  1.080283                       # Number of seconds simulated
sim_ticks                                1080282938031                       # Number of ticks simulated
final_tick                               267482913069933                       # Number of ticks from beginning of simulation (restored from checkpoints and never reset)
sim_freq                                 1000000000000                       # Frequency of simulated ticks
host_inst_rate                                 480456                       # Simulator instruction rate (inst/s)
host_op_rate                                   480456                       # Simulator op (including micro ops) rate (op/s)
host_tick_rate                              259514261                       # Simulator tick rate (ticks/s)
host_mem_usage                                2553096                       # Number of bytes of host memory used
host_seconds                                  4162.71                       # Real time elapsed on the host
sim_insts                                  2000000012                       # Number of instructions simulated
sim_ops                                    2000000012                       # Number of ops (including micro ops) simulated
system.voltage_domain.voltage                       1                       # Voltage in Volts
system.clk_domain.clock                          1000                       # Clock period in ticks
system.mem_ctrls0.pwrStateResidencyTicks::UNDEFINED 267482913069933                       # Cumulative time (in ticks) in various power states
system.mem_ctrls0.bytes_read::cpu.inst            128                       # Number of bytes read from this memory
system.mem_ctrls0.bytes_read::cpu.data             64                       # Number of bytes read from this memory
system.mem_ctrls0.bytes_read::switch_cpus.inst         7616                       # Number of bytes read from this memory
system.mem_ctrls0.bytes_read::switch_cpus.data       989696                       # Number of bytes read from this memory
system.mem_ctrls0.bytes_read::switch_cpus_1.inst          832                       # Number of bytes read from this memory
system.mem_ctrls0.bytes_read::switch_cpus_1.data      1001280                       # Number of bytes read from this memory
system.mem_ctrls0.bytes_read::total           1999616                       # Number of bytes read from this memory
system.mem_ctrls0.bytes_inst_read::cpu.inst          128                       # Number of instructions bytes read from this memory
system.mem_ctrls0.bytes_inst_read::switch_cpus.inst         7616                       # Number of instructions bytes read from this memory
system.mem_ctrls0.bytes_inst_read::switch_cpus_1.inst          832                       # Number of instructions bytes read from this memory
system.mem_ctrls0.bytes_inst_read::total         8576                       # Number of instructions bytes read from this memory
system.mem_ctrls0.bytes_written::writebacks          320                       # Number of bytes written to this memory
system.mem_ctrls0.bytes_written::total            320                       # Number of bytes written to this memory
system.mem_ctrls0.num_reads::cpu.inst               2                       # Number of read requests responded to by this memory
system.mem_ctrls0.num_reads::cpu.data               1                       # Number of read requests responded to by this memory
system.mem_ctrls0.num_reads::switch_cpus.inst          119                       # Number of read requests responded to by this memory
system.mem_ctrls0.num_reads::switch_cpus.data        15464                       # Number of read requests responded to by this memory
system.mem_ctrls0.num_reads::switch_cpus_1.inst           13                       # Number of read requests responded to by this memory
system.mem_ctrls0.num_reads::switch_cpus_1.data        15645                       # Number of read requests responded to by this memory
system.mem_ctrls0.num_reads::total              31244                       # Number of read requests responded to by this memory
system.mem_ctrls0.num_writes::writebacks            5                       # Number of write requests responded to by this memory
system.mem_ctrls0.num_writes::total                 5                       # Number of write requests responded to by this memory
system.mem_ctrls0.bw_read::cpu.inst               118                       # Total read bandwidth from this memory (bytes/s)
system.mem_ctrls0.bw_read::cpu.data                59                       # Total read bandwidth from this memory (bytes/s)
system.mem_ctrls0.bw_read::switch_cpus.inst         7050                       # Total read bandwidth from this memory (bytes/s)
system.mem_ctrls0.bw_read::switch_cpus.data       916145                       # Total read bandwidth from this memory (bytes/s)
system.mem_ctrls0.bw_read::switch_cpus_1.inst          770                       # Total read bandwidth from this memory (bytes/s)
system.mem_ctrls0.bw_read::switch_cpus_1.data       926868                       # Total read bandwidth from this memory (bytes/s)
system.mem_ctrls0.bw_read::total              1851011                       # Total read bandwidth from this memory (bytes/s)
system.mem_ctrls0.bw_inst_read::cpu.inst          118                       # Instruction read bandwidth from this memory (bytes/s)
system.mem_ctrls0.bw_inst_read::switch_cpus.inst         7050                       # Instruction read bandwidth from this memory (bytes/s)
system.mem_ctrls0.bw_inst_read::switch_cpus_1.inst          770                       # Instruction read bandwidth from this memory (bytes/s)
system.mem_ctrls0.bw_inst_read::total            7939                       # Instruction read bandwidth from this memory (bytes/s)
system.mem_ctrls0.bw_write::writebacks            296                       # Write bandwidth from this memory (bytes/s)
system.mem_ctrls0.bw_write::total                 296                       # Write bandwidth from this memory (bytes/s)
system.mem_ctrls0.bw_total::writebacks            296                       # Total bandwidth to/from this memory (bytes/s)
system.mem_ctrls0.bw_total::cpu.inst              118                       # Total bandwidth to/from this memory (bytes/s)
system.mem_ctrls0.bw_total::cpu.data               59                       # Total bandwidth to/from this memory (bytes/s)
system.mem_ctrls0.bw_total::switch_cpus.inst         7050                       # Total bandwidth to/from this memory (bytes/s)
system.mem_ctrls0.bw_total::switch_cpus.data       916145                       # Total bandwidth to/from this memory (bytes/s)
system.mem_ctrls0.bw_total::switch_cpus_1.inst          770                       # Total bandwidth to/from this memory (bytes/s)
system.mem_ctrls0.bw_total::switch_cpus_1.data       926868                       # Total bandwidth to/from this memory (bytes/s)
system.mem_ctrls0.bw_total::total             1851308                       # Total bandwidth to/from this memory (bytes/s)
system.mem_ctrls0.readReqs                      31244                       # Number of read requests accepted
system.mem_ctrls0.writeReqs                         5                       # Number of write requests accepted
system.mem_ctrls0.readBursts                    31244                       # Number of DRAM read bursts, including those serviced by the write queue
system.mem_ctrls0.writeBursts                       5                       # Number of DRAM write bursts, including those merged in the write queue
system.mem_ctrls0.bytesReadDRAM               1999616                       # Total number of bytes read from DRAM
system.mem_ctrls0.bytesReadWrQ                      0                       # Total number of bytes read from write queue
system.mem_ctrls0.bytesWritten                      0                       # Total number of bytes written to DRAM
system.mem_ctrls0.bytesReadSys                1999616                       # Total read bytes from the system interface side
system.mem_ctrls0.bytesWrittenSys                 320                       # Total written bytes from the system interface side
system.mem_ctrls0.servicedByWrQ                     0                       # Number of DRAM read bursts serviced by the write queue
system.mem_ctrls0.mergedWrBursts                    0                       # Number of DRAM write bursts merged with an existing one
system.mem_ctrls0.neitherReadNorWriteReqs            0                       # Number of requests that are neither read nor write
system.mem_ctrls0.perBankRdBursts::0             2048                       # Per bank write bursts
system.mem_ctrls0.perBankRdBursts::1             2086                       # Per bank write bursts
system.mem_ctrls0.perBankRdBursts::2             2052                       # Per bank write bursts
system.mem_ctrls0.perBankRdBursts::3             2052                       # Per bank write bursts
system.mem_ctrls0.perBankRdBursts::4             1902                       # Per bank write bursts
system.mem_ctrls0.perBankRdBursts::5             1792                       # Per bank write bursts
system.mem_ctrls0.perBankRdBursts::6             1821                       # Per bank write bursts
system.mem_ctrls0.perBankRdBursts::7             1912                       # Per bank write bursts
system.mem_ctrls0.perBankRdBursts::8             1970                       # Per bank write bursts
system.mem_ctrls0.perBankRdBursts::9             2024                       # Per bank write bursts
system.mem_ctrls0.perBankRdBursts::10            1829                       # Per bank write bursts
system.mem_ctrls0.perBankRdBursts::11            1806                       # Per bank write bursts
system.mem_ctrls0.perBankRdBursts::12            1928                       # Per bank write bursts
system.mem_ctrls0.perBankRdBursts::13            1926                       # Per bank write bursts
system.mem_ctrls0.perBankRdBursts::14            2048                       # Per bank write bursts
system.mem_ctrls0.perBankRdBursts::15            2048                       # Per bank write bursts
system.mem_ctrls0.perBankWrBursts::0                0                       # Per bank write bursts
system.mem_ctrls0.perBankWrBursts::1                0                       # Per bank write bursts
system.mem_ctrls0.perBankWrBursts::2                0                       # Per bank write bursts
system.mem_ctrls0.perBankWrBursts::3                0                       # Per bank write bursts
system.mem_ctrls0.perBankWrBursts::4                0                       # Per bank write bursts
system.mem_ctrls0.perBankWrBursts::5                0                       # Per bank write bursts
system.mem_ctrls0.perBankWrBursts::6                0                       # Per bank write bursts
system.mem_ctrls0.perBankWrBursts::7                0                       # Per bank write bursts
system.mem_ctrls0.perBankWrBursts::8                0                       # Per bank write bursts
system.mem_ctrls0.perBankWrBursts::9                0                       # Per bank write bursts
system.mem_ctrls0.perBankWrBursts::10               0                       # Per bank write bursts
system.mem_ctrls0.perBankWrBursts::11               0                       # Per bank write bursts
system.mem_ctrls0.perBankWrBursts::12               0                       # Per bank write bursts
system.mem_ctrls0.perBankWrBursts::13               0                       # Per bank write bursts
system.mem_ctrls0.perBankWrBursts::14               0                       # Per bank write bursts
system.mem_ctrls0.perBankWrBursts::15               0                       # Per bank write bursts
system.mem_ctrls0.numRdRetry                        0                       # Number of times read queue was full causing retry
system.mem_ctrls0.numWrRetry                        0                       # Number of times write queue was full causing retry
system.mem_ctrls0.totGap                 1079980798473                       # Total gap between requests
system.mem_ctrls0.readPktSize::0                    0                       # Read request sizes (log2)
system.mem_ctrls0.readPktSize::1                    0                       # Read request sizes (log2)
system.mem_ctrls0.readPktSize::2                    0                       # Read request sizes (log2)
system.mem_ctrls0.readPktSize::3                    0                       # Read request sizes (log2)
system.mem_ctrls0.readPktSize::4                    0                       # Read request sizes (log2)
system.mem_ctrls0.readPktSize::5                    0                       # Read request sizes (log2)
system.mem_ctrls0.readPktSize::6                31244                       # Read request sizes (log2)
system.mem_ctrls0.writePktSize::0                   0                       # Write request sizes (log2)
system.mem_ctrls0.writePktSize::1                   0                       # Write request sizes (log2)
system.mem_ctrls0.writePktSize::2                   0                       # Write request sizes (log2)
system.mem_ctrls0.writePktSize::3                   0                       # Write request sizes (log2)
system.mem_ctrls0.writePktSize::4                   0                       # Write request sizes (log2)
system.mem_ctrls0.writePktSize::5                   0                       # Write request sizes (log2)
system.mem_ctrls0.writePktSize::6                   5                       # Write request sizes (log2)
system.mem_ctrls0.rdQLenPdf::0                  29333                       # What read queue length does an incoming req see
system.mem_ctrls0.rdQLenPdf::1                   1910                       # What read queue length does an incoming req see
system.mem_ctrls0.rdQLenPdf::2                      1                       # What read queue length does an incoming req see
system.mem_ctrls0.rdQLenPdf::3                      0                       # What read queue length does an incoming req see
system.mem_ctrls0.rdQLenPdf::4                      0                       # What read queue length does an incoming req see
system.mem_ctrls0.rdQLenPdf::5                      0                       # What read queue length does an incoming req see
system.mem_ctrls0.rdQLenPdf::6                      0                       # What read queue length does an incoming req see
system.mem_ctrls0.rdQLenPdf::7                      0                       # What read queue length does an incoming req see
system.mem_ctrls0.rdQLenPdf::8                      0                       # What read queue length does an incoming req see
system.mem_ctrls0.rdQLenPdf::9                      0                       # What read queue length does an incoming req see
system.mem_ctrls0.rdQLenPdf::10                     0                       # What read queue length does an incoming req see
system.mem_ctrls0.rdQLenPdf::11                     0                       # What read queue length does an incoming req see
system.mem_ctrls0.rdQLenPdf::12                     0                       # What read queue length does an incoming req see
system.mem_ctrls0.rdQLenPdf::13                     0                       # What read queue length does an incoming req see
system.mem_ctrls0.rdQLenPdf::14                     0                       # What read queue length does an incoming req see
system.mem_ctrls0.rdQLenPdf::15                     0                       # What read queue length does an incoming req see
system.mem_ctrls0.rdQLenPdf::16                     0                       # What read queue length does an incoming req see
system.mem_ctrls0.rdQLenPdf::17                     0                       # What read queue length does an incoming req see
system.mem_ctrls0.rdQLenPdf::18                     0                       # What read queue length does an incoming req see
system.mem_ctrls0.rdQLenPdf::19                     0                       # What read queue length does an incoming req see
system.mem_ctrls0.rdQLenPdf::20                     0                       # What read queue length does an incoming req see
system.mem_ctrls0.rdQLenPdf::21                     0                       # What read queue length does an incoming req see
system.mem_ctrls0.rdQLenPdf::22                     0                       # What read queue length does an incoming req see
system.mem_ctrls0.rdQLenPdf::23                     0                       # What read queue length does an incoming req see
system.mem_ctrls0.rdQLenPdf::24                     0                       # What read queue length does an incoming req see
system.mem_ctrls0.rdQLenPdf::25                     0                       # What read queue length does an incoming req see
system.mem_ctrls0.rdQLenPdf::26                     0                       # What read queue length does an incoming req see
system.mem_ctrls0.rdQLenPdf::27                     0                       # What read queue length does an incoming req see
system.mem_ctrls0.rdQLenPdf::28                     0                       # What read queue length does an incoming req see
system.mem_ctrls0.rdQLenPdf::29                     0                       # What read queue length does an incoming req see
system.mem_ctrls0.rdQLenPdf::30                     0                       # What read queue length does an incoming req see
system.mem_ctrls0.rdQLenPdf::31                     0                       # What read queue length does an incoming req see
system.mem_ctrls0.wrQLenPdf::0                      1                       # What write queue length does an incoming req see
system.mem_ctrls0.wrQLenPdf::1                      1                       # What write queue length does an incoming req see
system.mem_ctrls0.wrQLenPdf::2                      1                       # What write queue length does an incoming req see
system.mem_ctrls0.wrQLenPdf::3                      1                       # What write queue length does an incoming req see
system.mem_ctrls0.wrQLenPdf::4                      1                       # What write queue length does an incoming req see
system.mem_ctrls0.wrQLenPdf::5                      0                       # What write queue length does an incoming req see
system.mem_ctrls0.wrQLenPdf::6                      0                       # What write queue length does an incoming req see
system.mem_ctrls0.wrQLenPdf::7                      0                       # What write queue length does an incoming req see
system.mem_ctrls0.wrQLenPdf::8                      0                       # What write queue length does an incoming req see
system.mem_ctrls0.wrQLenPdf::9                      0                       # What write queue length does an incoming req see
system.mem_ctrls0.wrQLenPdf::10                     0                       # What write queue length does an incoming req see
system.mem_ctrls0.wrQLenPdf::11                     0                       # What write queue length does an incoming req see
system.mem_ctrls0.wrQLenPdf::12                     0                       # What write queue length does an incoming req see
system.mem_ctrls0.wrQLenPdf::13                     0                       # What write queue length does an incoming req see
system.mem_ctrls0.wrQLenPdf::14                     0                       # What write queue length does an incoming req see
system.mem_ctrls0.wrQLenPdf::15                     0                       # What write queue length does an incoming req see
system.mem_ctrls0.wrQLenPdf::16                     0                       # What write queue length does an incoming req see
system.mem_ctrls0.wrQLenPdf::17                     0                       # What write queue length does an incoming req see
system.mem_ctrls0.wrQLenPdf::18                     0                       # What write queue length does an incoming req see
system.mem_ctrls0.wrQLenPdf::19                     0                       # What write queue length does an incoming req see
system.mem_ctrls0.wrQLenPdf::20                     0                       # What write queue length does an incoming req see
system.mem_ctrls0.wrQLenPdf::21                     0                       # What write queue length does an incoming req see
system.mem_ctrls0.wrQLenPdf::22                     0                       # What write queue length does an incoming req see
system.mem_ctrls0.wrQLenPdf::23                     0                       # What write queue length does an incoming req see
system.mem_ctrls0.wrQLenPdf::24                     0                       # What write queue length does an incoming req see
system.mem_ctrls0.wrQLenPdf::25                     0                       # What write queue length does an incoming req see
system.mem_ctrls0.wrQLenPdf::26                     0                       # What write queue length does an incoming req see
system.mem_ctrls0.wrQLenPdf::27                     0                       # What write queue length does an incoming req see
system.mem_ctrls0.wrQLenPdf::28                     0                       # What write queue length does an incoming req see
system.mem_ctrls0.wrQLenPdf::29                     0                       # What write queue length does an incoming req see
system.mem_ctrls0.wrQLenPdf::30                     0                       # What write queue length does an incoming req see
system.mem_ctrls0.wrQLenPdf::31                     0                       # What write queue length does an incoming req see
system.mem_ctrls0.wrQLenPdf::32                     0                       # What write queue length does an incoming req see
system.mem_ctrls0.wrQLenPdf::33                     0                       # What write queue length does an incoming req see
system.mem_ctrls0.wrQLenPdf::34                     0                       # What write queue length does an incoming req see
system.mem_ctrls0.wrQLenPdf::35                     0                       # What write queue length does an incoming req see
system.mem_ctrls0.wrQLenPdf::36                     0                       # What write queue length does an incoming req see
system.mem_ctrls0.wrQLenPdf::37                     0                       # What write queue length does an incoming req see
system.mem_ctrls0.wrQLenPdf::38                     0                       # What write queue length does an incoming req see
system.mem_ctrls0.wrQLenPdf::39                     0                       # What write queue length does an incoming req see
system.mem_ctrls0.wrQLenPdf::40                     0                       # What write queue length does an incoming req see
system.mem_ctrls0.wrQLenPdf::41                     0                       # What write queue length does an incoming req see
system.mem_ctrls0.wrQLenPdf::42                     0                       # What write queue length does an incoming req see
system.mem_ctrls0.wrQLenPdf::43                     0                       # What write queue length does an incoming req see
system.mem_ctrls0.wrQLenPdf::44                     0                       # What write queue length does an incoming req see
system.mem_ctrls0.wrQLenPdf::45                     0                       # What write queue length does an incoming req see
system.mem_ctrls0.wrQLenPdf::46                     0                       # What write queue length does an incoming req see
system.mem_ctrls0.wrQLenPdf::47                     0                       # What write queue length does an incoming req see
system.mem_ctrls0.wrQLenPdf::48                     0                       # What write queue length does an incoming req see
system.mem_ctrls0.wrQLenPdf::49                     0                       # What write queue length does an incoming req see
system.mem_ctrls0.wrQLenPdf::50                     0                       # What write queue length does an incoming req see
system.mem_ctrls0.wrQLenPdf::51                     0                       # What write queue length does an incoming req see
system.mem_ctrls0.wrQLenPdf::52                     0                       # What write queue length does an incoming req see
system.mem_ctrls0.wrQLenPdf::53                     0                       # What write queue length does an incoming req see
system.mem_ctrls0.wrQLenPdf::54                     0                       # What write queue length does an incoming req see
system.mem_ctrls0.wrQLenPdf::55                     0                       # What write queue length does an incoming req see
system.mem_ctrls0.wrQLenPdf::56                     0                       # What write queue length does an incoming req see
system.mem_ctrls0.wrQLenPdf::57                     0                       # What write queue length does an incoming req see
system.mem_ctrls0.wrQLenPdf::58                     0                       # What write queue length does an incoming req see
system.mem_ctrls0.wrQLenPdf::59                     0                       # What write queue length does an incoming req see
system.mem_ctrls0.wrQLenPdf::60                     0                       # What write queue length does an incoming req see
system.mem_ctrls0.wrQLenPdf::61                     0                       # What write queue length does an incoming req see
system.mem_ctrls0.wrQLenPdf::62                     0                       # What write queue length does an incoming req see
system.mem_ctrls0.wrQLenPdf::63                     0                       # What write queue length does an incoming req see
system.mem_ctrls0.bytesPerActivate::samples         6966                       # Bytes accessed per row activation
system.mem_ctrls0.bytesPerActivate::mean   287.053689                       # Bytes accessed per row activation
system.mem_ctrls0.bytesPerActivate::gmean   202.857634                       # Bytes accessed per row activation
system.mem_ctrls0.bytesPerActivate::stdev   251.326152                       # Bytes accessed per row activation
system.mem_ctrls0.bytesPerActivate::0-127         1701     24.42%     24.42% # Bytes accessed per row activation
system.mem_ctrls0.bytesPerActivate::128-255         1625     23.33%     47.75% # Bytes accessed per row activation
system.mem_ctrls0.bytesPerActivate::256-383         1637     23.50%     71.25% # Bytes accessed per row activation
system.mem_ctrls0.bytesPerActivate::384-511         1185     17.01%     88.26% # Bytes accessed per row activation
system.mem_ctrls0.bytesPerActivate::512-639           97      1.39%     89.65% # Bytes accessed per row activation
system.mem_ctrls0.bytesPerActivate::640-767           70      1.00%     90.65% # Bytes accessed per row activation
system.mem_ctrls0.bytesPerActivate::768-895           86      1.23%     91.89% # Bytes accessed per row activation
system.mem_ctrls0.bytesPerActivate::896-1023          288      4.13%     96.02% # Bytes accessed per row activation
system.mem_ctrls0.bytesPerActivate::1024-1151          277      3.98%    100.00% # Bytes accessed per row activation
system.mem_ctrls0.bytesPerActivate::total         6966                       # Bytes accessed per row activation
system.mem_ctrls0.totQLat                  1393565540                       # Total ticks spent queuing
system.mem_ctrls0.totMemAccLat             1979390540                       # Total ticks spent from burst creation until serviced by the DRAM
system.mem_ctrls0.totBusLat                 156220000                       # Total ticks spent in databus transfers
system.mem_ctrls0.avgQLat                    44602.66                       # Average queueing delay per DRAM burst
system.mem_ctrls0.avgBusLat                   5000.00                       # Average bus latency per DRAM burst
system.mem_ctrls0.avgMemAccLat               63352.66                       # Average memory access latency per DRAM burst
system.mem_ctrls0.avgRdBW                        1.85                       # Average DRAM read bandwidth in MiByte/s
system.mem_ctrls0.avgWrBW                        0.00                       # Average achieved write bandwidth in MiByte/s
system.mem_ctrls0.avgRdBWSys                     1.85                       # Average system read bandwidth in MiByte/s
system.mem_ctrls0.avgWrBWSys                     0.00                       # Average system write bandwidth in MiByte/s
system.mem_ctrls0.peakBW                     12800.00                       # Theoretical peak bandwidth in MiByte/s
system.mem_ctrls0.busUtil                        0.01                       # Data bus utilization in percentage
system.mem_ctrls0.busUtilRead                    0.01                       # Data bus utilization in percentage for reads
system.mem_ctrls0.busUtilWrite                   0.00                       # Data bus utilization in percentage for writes
system.mem_ctrls0.avgRdQLen                      1.04                       # Average read queue length when enqueuing
system.mem_ctrls0.avgWrQLen                      0.03                       # Average write queue length when enqueuing
system.mem_ctrls0.readRowHits                   24278                       # Number of row buffer hits during reads
system.mem_ctrls0.writeRowHits                      0                       # Number of row buffer hits during writes
system.mem_ctrls0.readRowHitRate                77.70                       # Row buffer hit rate for reads
system.mem_ctrls0.writeRowHitRate                0.00                       # Row buffer hit rate for writes
system.mem_ctrls0.avgGap                  34560491.49                       # Average gap between requests
system.mem_ctrls0.pageHitRate                   77.69                       # Row buffer hit rate, read and write combined
system.mem_ctrls0_0.actEnergy                25204200                       # Energy for activate commands per rank (pJ)
system.mem_ctrls0_0.preEnergy                13396350                       # Energy for precharge commands per rank (pJ)
system.mem_ctrls0_0.readEnergy              111848100                       # Energy for read commands per rank (pJ)
system.mem_ctrls0_0.writeEnergy                     0                       # Energy for write commands per rank (pJ)
system.mem_ctrls0_0.refreshEnergy        2239748160.000000                       # Energy for refresh commands per rank (pJ)
system.mem_ctrls0_0.actBackEnergy           606640740                       # Energy for active background per rank (pJ)
system.mem_ctrls0_0.preBackEnergy           129843360                       # Energy for precharge background per rank (pJ)
system.mem_ctrls0_0.actPowerDownEnergy     6232278540                       # Energy for active power-down per rank (pJ)
system.mem_ctrls0_0.prePowerDownEnergy     2652503040                       # Energy for precharge power-down per rank (pJ)
system.mem_ctrls0_0.selfRefreshEnergy    254396880225                       # Energy for self refresh per rank (pJ)
system.mem_ctrls0_0.totalEnergy          266409948495                       # Total energy per rank (pJ)
system.mem_ctrls0_0.averagePower           246.611271                       # Core power per rank (mW)
system.mem_ctrls0_0.totalIdleTime        1077092151819                       # Total Idle time Per DRAM Rank
system.mem_ctrls0_0.memoryStateTime::IDLE    255456577                       # Time in different power states
system.mem_ctrls0_0.memoryStateTime::REF    952654000                       # Time in different power states
system.mem_ctrls0_0.memoryStateTime::SREF 1058036038281                       # Time in different power states
system.mem_ctrls0_0.memoryStateTime::PRE_PDN   6907576251                       # Time in different power states
system.mem_ctrls0_0.memoryStateTime::ACT    463820302                       # Time in different power states
system.mem_ctrls0_0.memoryStateTime::ACT_PDN  13667392620                       # Time in different power states
system.mem_ctrls0_1.actEnergy                24533040                       # Energy for activate commands per rank (pJ)
system.mem_ctrls0_1.preEnergy                13039620                       # Energy for precharge commands per rank (pJ)
system.mem_ctrls0_1.readEnergy              111234060                       # Energy for read commands per rank (pJ)
system.mem_ctrls0_1.writeEnergy                     0                       # Energy for write commands per rank (pJ)
system.mem_ctrls0_1.refreshEnergy        2172752400.000000                       # Energy for refresh commands per rank (pJ)
system.mem_ctrls0_1.actBackEnergy           596267310                       # Energy for active background per rank (pJ)
system.mem_ctrls0_1.preBackEnergy           119226240                       # Energy for precharge background per rank (pJ)
system.mem_ctrls0_1.actPowerDownEnergy     6236163090                       # Energy for active power-down per rank (pJ)
system.mem_ctrls0_1.prePowerDownEnergy     2499675840                       # Energy for precharge power-down per rank (pJ)
system.mem_ctrls0_1.selfRefreshEnergy    254470938585                       # Energy for self refresh per rank (pJ)
system.mem_ctrls0_1.totalEnergy          266244166665                       # Total energy per rank (pJ)
system.mem_ctrls0_1.averagePower           246.457810                       # Core power per rank (mW)
system.mem_ctrls0_1.totalIdleTime        1078377902345                       # Total Idle time Per DRAM Rank
system.mem_ctrls0_1.memoryStateTime::IDLE    227501809                       # Time in different power states
system.mem_ctrls0_1.memoryStateTime::REF    923882000                       # Time in different power states
system.mem_ctrls0_1.memoryStateTime::SREF 1058478725531                       # Time in different power states
system.mem_ctrls0_1.memoryStateTime::PRE_PDN   6509567606                       # Time in different power states
system.mem_ctrls0_1.memoryStateTime::ACT    467635804                       # Time in different power states
system.mem_ctrls0_1.memoryStateTime::ACT_PDN  13675625281                       # Time in different power states
system.mem_ctrls1.pwrStateResidencyTicks::UNDEFINED 267482913069933                       # Cumulative time (in ticks) in various power states
system.mem_ctrls1.bytes_read::cpu.inst             64                       # Number of bytes read from this memory
system.mem_ctrls1.bytes_read::switch_cpus.inst         8192                       # Number of bytes read from this memory
system.mem_ctrls1.bytes_read::switch_cpus.data       989760                       # Number of bytes read from this memory
system.mem_ctrls1.bytes_read::switch_cpus_1.inst         1088                       # Number of bytes read from this memory
system.mem_ctrls1.bytes_read::switch_cpus_1.data      1001216                       # Number of bytes read from this memory
system.mem_ctrls1.bytes_read::total           2000320                       # Number of bytes read from this memory
system.mem_ctrls1.bytes_inst_read::cpu.inst           64                       # Number of instructions bytes read from this memory
system.mem_ctrls1.bytes_inst_read::switch_cpus.inst         8192                       # Number of instructions bytes read from this memory
system.mem_ctrls1.bytes_inst_read::switch_cpus_1.inst         1088                       # Number of instructions bytes read from this memory
system.mem_ctrls1.bytes_inst_read::total         9344                       # Number of instructions bytes read from this memory
system.mem_ctrls1.bytes_written::writebacks          128                       # Number of bytes written to this memory
system.mem_ctrls1.bytes_written::total            128                       # Number of bytes written to this memory
system.mem_ctrls1.num_reads::cpu.inst               1                       # Number of read requests responded to by this memory
system.mem_ctrls1.num_reads::switch_cpus.inst          128                       # Number of read requests responded to by this memory
system.mem_ctrls1.num_reads::switch_cpus.data        15465                       # Number of read requests responded to by this memory
system.mem_ctrls1.num_reads::switch_cpus_1.inst           17                       # Number of read requests responded to by this memory
system.mem_ctrls1.num_reads::switch_cpus_1.data        15644                       # Number of read requests responded to by this memory
system.mem_ctrls1.num_reads::total              31255                       # Number of read requests responded to by this memory
system.mem_ctrls1.num_writes::writebacks            2                       # Number of write requests responded to by this memory
system.mem_ctrls1.num_writes::total                 2                       # Number of write requests responded to by this memory
system.mem_ctrls1.bw_read::cpu.inst                59                       # Total read bandwidth from this memory (bytes/s)
system.mem_ctrls1.bw_read::switch_cpus.inst         7583                       # Total read bandwidth from this memory (bytes/s)
system.mem_ctrls1.bw_read::switch_cpus.data       916204                       # Total read bandwidth from this memory (bytes/s)
system.mem_ctrls1.bw_read::switch_cpus_1.inst         1007                       # Total read bandwidth from this memory (bytes/s)
system.mem_ctrls1.bw_read::switch_cpus_1.data       926809                       # Total read bandwidth from this memory (bytes/s)
system.mem_ctrls1.bw_read::total              1851663                       # Total read bandwidth from this memory (bytes/s)
system.mem_ctrls1.bw_inst_read::cpu.inst           59                       # Instruction read bandwidth from this memory (bytes/s)
system.mem_ctrls1.bw_inst_read::switch_cpus.inst         7583                       # Instruction read bandwidth from this memory (bytes/s)
system.mem_ctrls1.bw_inst_read::switch_cpus_1.inst         1007                       # Instruction read bandwidth from this memory (bytes/s)
system.mem_ctrls1.bw_inst_read::total            8650                       # Instruction read bandwidth from this memory (bytes/s)
system.mem_ctrls1.bw_write::writebacks            118                       # Write bandwidth from this memory (bytes/s)
system.mem_ctrls1.bw_write::total                 118                       # Write bandwidth from this memory (bytes/s)
system.mem_ctrls1.bw_total::writebacks            118                       # Total bandwidth to/from this memory (bytes/s)
system.mem_ctrls1.bw_total::cpu.inst               59                       # Total bandwidth to/from this memory (bytes/s)
system.mem_ctrls1.bw_total::switch_cpus.inst         7583                       # Total bandwidth to/from this memory (bytes/s)
system.mem_ctrls1.bw_total::switch_cpus.data       916204                       # Total bandwidth to/from this memory (bytes/s)
system.mem_ctrls1.bw_total::switch_cpus_1.inst         1007                       # Total bandwidth to/from this memory (bytes/s)
system.mem_ctrls1.bw_total::switch_cpus_1.data       926809                       # Total bandwidth to/from this memory (bytes/s)
system.mem_ctrls1.bw_total::total             1851782                       # Total bandwidth to/from this memory (bytes/s)
system.mem_ctrls1.readReqs                      31255                       # Number of read requests accepted
system.mem_ctrls1.writeReqs                         2                       # Number of write requests accepted
system.mem_ctrls1.readBursts                    31255                       # Number of DRAM read bursts, including those serviced by the write queue
system.mem_ctrls1.writeBursts                       2                       # Number of DRAM write bursts, including those merged in the write queue
system.mem_ctrls1.bytesReadDRAM               2000320                       # Total number of bytes read from DRAM
system.mem_ctrls1.bytesReadWrQ                      0                       # Total number of bytes read from write queue
system.mem_ctrls1.bytesWritten                      0                       # Total number of bytes written to DRAM
system.mem_ctrls1.bytesReadSys                2000320                       # Total read bytes from the system interface side
system.mem_ctrls1.bytesWrittenSys                 128                       # Total written bytes from the system interface side
system.mem_ctrls1.servicedByWrQ                     0                       # Number of DRAM read bursts serviced by the write queue
system.mem_ctrls1.mergedWrBursts                    0                       # Number of DRAM write bursts merged with an existing one
system.mem_ctrls1.neitherReadNorWriteReqs            0                       # Number of requests that are neither read nor write
system.mem_ctrls1.perBankRdBursts::0             2048                       # Per bank write bursts
system.mem_ctrls1.perBankRdBursts::1             2089                       # Per bank write bursts
system.mem_ctrls1.perBankRdBursts::2             2050                       # Per bank write bursts
system.mem_ctrls1.perBankRdBursts::3             2054                       # Per bank write bursts
system.mem_ctrls1.perBankRdBursts::4             1901                       # Per bank write bursts
system.mem_ctrls1.perBankRdBursts::5             1792                       # Per bank write bursts
system.mem_ctrls1.perBankRdBursts::6             1824                       # Per bank write bursts
system.mem_ctrls1.perBankRdBursts::7             1913                       # Per bank write bursts
system.mem_ctrls1.perBankRdBursts::8             1975                       # Per bank write bursts
system.mem_ctrls1.perBankRdBursts::9             2018                       # Per bank write bursts
system.mem_ctrls1.perBankRdBursts::10            1834                       # Per bank write bursts
system.mem_ctrls1.perBankRdBursts::11            1806                       # Per bank write bursts
system.mem_ctrls1.perBankRdBursts::12            1928                       # Per bank write bursts
system.mem_ctrls1.perBankRdBursts::13            1927                       # Per bank write bursts
system.mem_ctrls1.perBankRdBursts::14            2048                       # Per bank write bursts
system.mem_ctrls1.perBankRdBursts::15            2048                       # Per bank write bursts
system.mem_ctrls1.perBankWrBursts::0                0                       # Per bank write bursts
system.mem_ctrls1.perBankWrBursts::1                0                       # Per bank write bursts
system.mem_ctrls1.perBankWrBursts::2                0                       # Per bank write bursts
system.mem_ctrls1.perBankWrBursts::3                0                       # Per bank write bursts
system.mem_ctrls1.perBankWrBursts::4                0                       # Per bank write bursts
system.mem_ctrls1.perBankWrBursts::5                0                       # Per bank write bursts
system.mem_ctrls1.perBankWrBursts::6                0                       # Per bank write bursts
system.mem_ctrls1.perBankWrBursts::7                0                       # Per bank write bursts
system.mem_ctrls1.perBankWrBursts::8                0                       # Per bank write bursts
system.mem_ctrls1.perBankWrBursts::9                0                       # Per bank write bursts
system.mem_ctrls1.perBankWrBursts::10               0                       # Per bank write bursts
system.mem_ctrls1.perBankWrBursts::11               0                       # Per bank write bursts
system.mem_ctrls1.perBankWrBursts::12               0                       # Per bank write bursts
system.mem_ctrls1.perBankWrBursts::13               0                       # Per bank write bursts
system.mem_ctrls1.perBankWrBursts::14               0                       # Per bank write bursts
system.mem_ctrls1.perBankWrBursts::15               0                       # Per bank write bursts
system.mem_ctrls1.numRdRetry                        0                       # Number of times read queue was full causing retry
system.mem_ctrls1.numWrRetry                        0                       # Number of times write queue was full causing retry
system.mem_ctrls1.totGap                 1079981331606                       # Total gap between requests
system.mem_ctrls1.readPktSize::0                    0                       # Read request sizes (log2)
system.mem_ctrls1.readPktSize::1                    0                       # Read request sizes (log2)
system.mem_ctrls1.readPktSize::2                    0                       # Read request sizes (log2)
system.mem_ctrls1.readPktSize::3                    0                       # Read request sizes (log2)
system.mem_ctrls1.readPktSize::4                    0                       # Read request sizes (log2)
system.mem_ctrls1.readPktSize::5                    0                       # Read request sizes (log2)
system.mem_ctrls1.readPktSize::6                31255                       # Read request sizes (log2)
system.mem_ctrls1.writePktSize::0                   0                       # Write request sizes (log2)
system.mem_ctrls1.writePktSize::1                   0                       # Write request sizes (log2)
system.mem_ctrls1.writePktSize::2                   0                       # Write request sizes (log2)
system.mem_ctrls1.writePktSize::3                   0                       # Write request sizes (log2)
system.mem_ctrls1.writePktSize::4                   0                       # Write request sizes (log2)
system.mem_ctrls1.writePktSize::5                   0                       # Write request sizes (log2)
system.mem_ctrls1.writePktSize::6                   2                       # Write request sizes (log2)
system.mem_ctrls1.rdQLenPdf::0                  29402                       # What read queue length does an incoming req see
system.mem_ctrls1.rdQLenPdf::1                   1853                       # What read queue length does an incoming req see
system.mem_ctrls1.rdQLenPdf::2                      0                       # What read queue length does an incoming req see
system.mem_ctrls1.rdQLenPdf::3                      0                       # What read queue length does an incoming req see
system.mem_ctrls1.rdQLenPdf::4                      0                       # What read queue length does an incoming req see
system.mem_ctrls1.rdQLenPdf::5                      0                       # What read queue length does an incoming req see
system.mem_ctrls1.rdQLenPdf::6                      0                       # What read queue length does an incoming req see
system.mem_ctrls1.rdQLenPdf::7                      0                       # What read queue length does an incoming req see
system.mem_ctrls1.rdQLenPdf::8                      0                       # What read queue length does an incoming req see
system.mem_ctrls1.rdQLenPdf::9                      0                       # What read queue length does an incoming req see
system.mem_ctrls1.rdQLenPdf::10                     0                       # What read queue length does an incoming req see
system.mem_ctrls1.rdQLenPdf::11                     0                       # What read queue length does an incoming req see
system.mem_ctrls1.rdQLenPdf::12                     0                       # What read queue length does an incoming req see
system.mem_ctrls1.rdQLenPdf::13                     0                       # What read queue length does an incoming req see
system.mem_ctrls1.rdQLenPdf::14                     0                       # What read queue length does an incoming req see
system.mem_ctrls1.rdQLenPdf::15                     0                       # What read queue length does an incoming req see
system.mem_ctrls1.rdQLenPdf::16                     0                       # What read queue length does an incoming req see
system.mem_ctrls1.rdQLenPdf::17                     0                       # What read queue length does an incoming req see
system.mem_ctrls1.rdQLenPdf::18                     0                       # What read queue length does an incoming req see
system.mem_ctrls1.rdQLenPdf::19                     0                       # What read queue length does an incoming req see
system.mem_ctrls1.rdQLenPdf::20                     0                       # What read queue length does an incoming req see
system.mem_ctrls1.rdQLenPdf::21                     0                       # What read queue length does an incoming req see
system.mem_ctrls1.rdQLenPdf::22                     0                       # What read queue length does an incoming req see
system.mem_ctrls1.rdQLenPdf::23                     0                       # What read queue length does an incoming req see
system.mem_ctrls1.rdQLenPdf::24                     0                       # What read queue length does an incoming req see
system.mem_ctrls1.rdQLenPdf::25                     0                       # What read queue length does an incoming req see
system.mem_ctrls1.rdQLenPdf::26                     0                       # What read queue length does an incoming req see
system.mem_ctrls1.rdQLenPdf::27                     0                       # What read queue length does an incoming req see
system.mem_ctrls1.rdQLenPdf::28                     0                       # What read queue length does an incoming req see
system.mem_ctrls1.rdQLenPdf::29                     0                       # What read queue length does an incoming req see
system.mem_ctrls1.rdQLenPdf::30                     0                       # What read queue length does an incoming req see
system.mem_ctrls1.rdQLenPdf::31                     0                       # What read queue length does an incoming req see
system.mem_ctrls1.wrQLenPdf::0                      1                       # What write queue length does an incoming req see
system.mem_ctrls1.wrQLenPdf::1                      1                       # What write queue length does an incoming req see
system.mem_ctrls1.wrQLenPdf::2                      0                       # What write queue length does an incoming req see
system.mem_ctrls1.wrQLenPdf::3                      0                       # What write queue length does an incoming req see
system.mem_ctrls1.wrQLenPdf::4                      0                       # What write queue length does an incoming req see
system.mem_ctrls1.wrQLenPdf::5                      0                       # What write queue length does an incoming req see
system.mem_ctrls1.wrQLenPdf::6                      0                       # What write queue length does an incoming req see
system.mem_ctrls1.wrQLenPdf::7                      0                       # What write queue length does an incoming req see
system.mem_ctrls1.wrQLenPdf::8                      0                       # What write queue length does an incoming req see
system.mem_ctrls1.wrQLenPdf::9                      0                       # What write queue length does an incoming req see
system.mem_ctrls1.wrQLenPdf::10                     0                       # What write queue length does an incoming req see
system.mem_ctrls1.wrQLenPdf::11                     0                       # What write queue length does an incoming req see
system.mem_ctrls1.wrQLenPdf::12                     0                       # What write queue length does an incoming req see
system.mem_ctrls1.wrQLenPdf::13                     0                       # What write queue length does an incoming req see
system.mem_ctrls1.wrQLenPdf::14                     0                       # What write queue length does an incoming req see
system.mem_ctrls1.wrQLenPdf::15                     0                       # What write queue length does an incoming req see
system.mem_ctrls1.wrQLenPdf::16                     0                       # What write queue length does an incoming req see
system.mem_ctrls1.wrQLenPdf::17                     0                       # What write queue length does an incoming req see
system.mem_ctrls1.wrQLenPdf::18                     0                       # What write queue length does an incoming req see
system.mem_ctrls1.wrQLenPdf::19                     0                       # What write queue length does an incoming req see
system.mem_ctrls1.wrQLenPdf::20                     0                       # What write queue length does an incoming req see
system.mem_ctrls1.wrQLenPdf::21                     0                       # What write queue length does an incoming req see
system.mem_ctrls1.wrQLenPdf::22                     0                       # What write queue length does an incoming req see
system.mem_ctrls1.wrQLenPdf::23                     0                       # What write queue length does an incoming req see
system.mem_ctrls1.wrQLenPdf::24                     0                       # What write queue length does an incoming req see
system.mem_ctrls1.wrQLenPdf::25                     0                       # What write queue length does an incoming req see
system.mem_ctrls1.wrQLenPdf::26                     0                       # What write queue length does an incoming req see
system.mem_ctrls1.wrQLenPdf::27                     0                       # What write queue length does an incoming req see
system.mem_ctrls1.wrQLenPdf::28                     0                       # What write queue length does an incoming req see
system.mem_ctrls1.wrQLenPdf::29                     0                       # What write queue length does an incoming req see
system.mem_ctrls1.wrQLenPdf::30                     0                       # What write queue length does an incoming req see
system.mem_ctrls1.wrQLenPdf::31                     0                       # What write queue length does an incoming req see
system.mem_ctrls1.wrQLenPdf::32                     0                       # What write queue length does an incoming req see
system.mem_ctrls1.wrQLenPdf::33                     0                       # What write queue length does an incoming req see
system.mem_ctrls1.wrQLenPdf::34                     0                       # What write queue length does an incoming req see
system.mem_ctrls1.wrQLenPdf::35                     0                       # What write queue length does an incoming req see
system.mem_ctrls1.wrQLenPdf::36                     0                       # What write queue length does an incoming req see
system.mem_ctrls1.wrQLenPdf::37                     0                       # What write queue length does an incoming req see
system.mem_ctrls1.wrQLenPdf::38                     0                       # What write queue length does an incoming req see
system.mem_ctrls1.wrQLenPdf::39                     0                       # What write queue length does an incoming req see
system.mem_ctrls1.wrQLenPdf::40                     0                       # What write queue length does an incoming req see
system.mem_ctrls1.wrQLenPdf::41                     0                       # What write queue length does an incoming req see
system.mem_ctrls1.wrQLenPdf::42                     0                       # What write queue length does an incoming req see
system.mem_ctrls1.wrQLenPdf::43                     0                       # What write queue length does an incoming req see
system.mem_ctrls1.wrQLenPdf::44                     0                       # What write queue length does an incoming req see
system.mem_ctrls1.wrQLenPdf::45                     0                       # What write queue length does an incoming req see
system.mem_ctrls1.wrQLenPdf::46                     0                       # What write queue length does an incoming req see
system.mem_ctrls1.wrQLenPdf::47                     0                       # What write queue length does an incoming req see
system.mem_ctrls1.wrQLenPdf::48                     0                       # What write queue length does an incoming req see
system.mem_ctrls1.wrQLenPdf::49                     0                       # What write queue length does an incoming req see
system.mem_ctrls1.wrQLenPdf::50                     0                       # What write queue length does an incoming req see
system.mem_ctrls1.wrQLenPdf::51                     0                       # What write queue length does an incoming req see
system.mem_ctrls1.wrQLenPdf::52                     0                       # What write queue length does an incoming req see
system.mem_ctrls1.wrQLenPdf::53                     0                       # What write queue length does an incoming req see
system.mem_ctrls1.wrQLenPdf::54                     0                       # What write queue length does an incoming req see
system.mem_ctrls1.wrQLenPdf::55                     0                       # What write queue length does an incoming req see
system.mem_ctrls1.wrQLenPdf::56                     0                       # What write queue length does an incoming req see
system.mem_ctrls1.wrQLenPdf::57                     0                       # What write queue length does an incoming req see
system.mem_ctrls1.wrQLenPdf::58                     0                       # What write queue length does an incoming req see
system.mem_ctrls1.wrQLenPdf::59                     0                       # What write queue length does an incoming req see
system.mem_ctrls1.wrQLenPdf::60                     0                       # What write queue length does an incoming req see
system.mem_ctrls1.wrQLenPdf::61                     0                       # What write queue length does an incoming req see
system.mem_ctrls1.wrQLenPdf::62                     0                       # What write queue length does an incoming req see
system.mem_ctrls1.wrQLenPdf::63                     0                       # What write queue length does an incoming req see
system.mem_ctrls1.bytesPerActivate::samples         6955                       # Bytes accessed per row activation
system.mem_ctrls1.bytesPerActivate::mean   287.608914                       # Bytes accessed per row activation
system.mem_ctrls1.bytesPerActivate::gmean   204.233889                       # Bytes accessed per row activation
system.mem_ctrls1.bytesPerActivate::stdev   251.077776                       # Bytes accessed per row activation
system.mem_ctrls1.bytesPerActivate::0-127         1631     23.45%     23.45% # Bytes accessed per row activation
system.mem_ctrls1.bytesPerActivate::128-255         1674     24.07%     47.52% # Bytes accessed per row activation
system.mem_ctrls1.bytesPerActivate::256-383         1685     24.23%     71.75% # Bytes accessed per row activation
system.mem_ctrls1.bytesPerActivate::384-511         1149     16.52%     88.27% # Bytes accessed per row activation
system.mem_ctrls1.bytesPerActivate::512-639           92      1.32%     89.59% # Bytes accessed per row activation
system.mem_ctrls1.bytesPerActivate::640-767           73      1.05%     90.64% # Bytes accessed per row activation
system.mem_ctrls1.bytesPerActivate::768-895           91      1.31%     91.95% # Bytes accessed per row activation
system.mem_ctrls1.bytesPerActivate::896-1023          272      3.91%     95.86% # Bytes accessed per row activation
system.mem_ctrls1.bytesPerActivate::1024-1151          288      4.14%    100.00% # Bytes accessed per row activation
system.mem_ctrls1.bytesPerActivate::total         6955                       # Bytes accessed per row activation
system.mem_ctrls1.totQLat                  1403758344                       # Total ticks spent queuing
system.mem_ctrls1.totMemAccLat             1989789594                       # Total ticks spent from burst creation until serviced by the DRAM
system.mem_ctrls1.totBusLat                 156275000                       # Total ticks spent in databus transfers
system.mem_ctrls1.avgQLat                    44913.08                       # Average queueing delay per DRAM burst
system.mem_ctrls1.avgBusLat                   5000.00                       # Average bus latency per DRAM burst
system.mem_ctrls1.avgMemAccLat               63663.08                       # Average memory access latency per DRAM burst
system.mem_ctrls1.avgRdBW                        1.85                       # Average DRAM read bandwidth in MiByte/s
system.mem_ctrls1.avgWrBW                        0.00                       # Average achieved write bandwidth in MiByte/s
system.mem_ctrls1.avgRdBWSys                     1.85                       # Average system read bandwidth in MiByte/s
system.mem_ctrls1.avgWrBWSys                     0.00                       # Average system write bandwidth in MiByte/s
system.mem_ctrls1.peakBW                     12800.00                       # Theoretical peak bandwidth in MiByte/s
system.mem_ctrls1.busUtil                        0.01                       # Data bus utilization in percentage
system.mem_ctrls1.busUtilRead                    0.01                       # Data bus utilization in percentage for reads
system.mem_ctrls1.busUtilWrite                   0.00                       # Data bus utilization in percentage for writes
system.mem_ctrls1.avgRdQLen                      1.05                       # Average read queue length when enqueuing
system.mem_ctrls1.avgWrQLen                      0.01                       # Average write queue length when enqueuing
system.mem_ctrls1.readRowHits                   24300                       # Number of row buffer hits during reads
system.mem_ctrls1.writeRowHits                      0                       # Number of row buffer hits during writes
system.mem_ctrls1.readRowHitRate                77.75                       # Row buffer hit rate for reads
system.mem_ctrls1.writeRowHitRate                0.00                       # Row buffer hit rate for writes
system.mem_ctrls1.avgGap                  34551663.04                       # Average gap between requests
system.mem_ctrls1.pageHitRate                   77.74                       # Row buffer hit rate, read and write combined
system.mem_ctrls1_0.actEnergy                25175640                       # Energy for activate commands per rank (pJ)
system.mem_ctrls1_0.preEnergy                13381170                       # Energy for precharge commands per rank (pJ)
system.mem_ctrls1_0.readEnergy              111890940                       # Energy for read commands per rank (pJ)
system.mem_ctrls1_0.writeEnergy                     0                       # Energy for write commands per rank (pJ)
system.mem_ctrls1_0.refreshEnergy        2238518880.000000                       # Energy for refresh commands per rank (pJ)
system.mem_ctrls1_0.actBackEnergy           606171060                       # Energy for active background per rank (pJ)
system.mem_ctrls1_0.preBackEnergy           131551200                       # Energy for precharge background per rank (pJ)
system.mem_ctrls1_0.actPowerDownEnergy     6204419220                       # Energy for active power-down per rank (pJ)
system.mem_ctrls1_0.prePowerDownEnergy     2652188640                       # Energy for precharge power-down per rank (pJ)
system.mem_ctrls1_0.selfRefreshEnergy    254414028330                       # Energy for self refresh per rank (pJ)
system.mem_ctrls1_0.totalEnergy          266398664940                       # Total energy per rank (pJ)
system.mem_ctrls1_0.averagePower           246.600826                       # Core power per rank (mW)
system.mem_ctrls1_0.totalIdleTime        1077088579028                       # Total Idle time Per DRAM Rank
system.mem_ctrls1_0.memoryStateTime::IDLE    259274750                       # Time in different power states
system.mem_ctrls1_0.memoryStateTime::REF    952170000                       # Time in different power states
system.mem_ctrls1_0.memoryStateTime::SREF 1058095112281                       # Time in different power states
system.mem_ctrls1_0.memoryStateTime::PRE_PDN   6906720271                       # Time in different power states
system.mem_ctrls1_0.memoryStateTime::ACT    463348631                       # Time in different power states
system.mem_ctrls1_0.memoryStateTime::ACT_PDN  13606312098                       # Time in different power states
system.mem_ctrls1_1.actEnergy                24483060                       # Energy for activate commands per rank (pJ)
system.mem_ctrls1_1.preEnergy                13013055                       # Energy for precharge commands per rank (pJ)
system.mem_ctrls1_1.readEnergy              111269760                       # Energy for read commands per rank (pJ)
system.mem_ctrls1_1.writeEnergy                     0                       # Energy for write commands per rank (pJ)
system.mem_ctrls1_1.refreshEnergy        2175825600.000000                       # Energy for refresh commands per rank (pJ)
system.mem_ctrls1_1.actBackEnergy           596475930                       # Energy for active background per rank (pJ)
system.mem_ctrls1_1.preBackEnergy           120155040                       # Energy for precharge background per rank (pJ)
system.mem_ctrls1_1.actPowerDownEnergy     6238386090                       # Energy for active power-down per rank (pJ)
system.mem_ctrls1_1.prePowerDownEnergy     2489340480                       # Energy for precharge power-down per rank (pJ)
system.mem_ctrls1_1.selfRefreshEnergy    254480043420                       # Energy for self refresh per rank (pJ)
system.mem_ctrls1_1.totalEnergy          266249369715                       # Total energy per rank (pJ)
system.mem_ctrls1_1.averagePower           246.462626                       # Core power per rank (mW)
system.mem_ctrls1_1.totalIdleTime        1078374994264                       # Total Idle time Per DRAM Rank
system.mem_ctrls1_1.memoryStateTime::IDLE    229969756                       # Time in different power states
system.mem_ctrls1_1.memoryStateTime::REF    925254000                       # Time in different power states
system.mem_ctrls1_1.memoryStateTime::SREF 1058497796281                       # Time in different power states
system.mem_ctrls1_1.memoryStateTime::PRE_PDN   6482615635                       # Time in different power states
system.mem_ctrls1_1.memoryStateTime::ACT    466717591                       # Time in different power states
system.mem_ctrls1_1.memoryStateTime::ACT_PDN  13680584768                       # Time in different power states
system.pwrStateResidencyTicks::UNDEFINED 267482913069933                       # Cumulative time (in ticks) in various power states
system.cpu.branchPred.lookups                       2                       # Number of BP lookups
system.cpu.branchPred.condPredicted                 2                       # Number of conditional branches predicted
system.cpu.branchPred.condIncorrect                 1                       # Number of conditional branches incorrect
system.cpu.branchPred.BTBLookups                    0                       # Number of BTB lookups
system.cpu.branchPred.BTBHits                       0                       # Number of BTB hits
system.cpu.branchPred.BTBCorrect                    0                       # Number of correct BTB predictions (this stat may not work properly.
system.cpu.branchPred.BTBHitPct                   nan                       # BTB Hit Percentage
system.cpu.branchPred.usedRAS                       0                       # Number of times the RAS was used to get a target.
system.cpu.branchPred.RASInCorrect                  0                       # Number of incorrect RAS predictions.
system.cpu.branchPred.indirectLookups               0                       # Number of indirect predictor lookups.
system.cpu.branchPred.indirectHits                  0                       # Number of indirect target hits.
system.cpu.branchPred.indirectMisses                0                       # Number of indirect misses.
system.cpu.branchPredindirectMispredicted            0                       # Number of mispredicted indirect branches.
system.cpu_voltage_domain.voltage                   1                       # Voltage in Volts
system.cpu_clk_domain.clock                       333                       # Clock period in ticks
system.cpu.dtb.fetch_hits                           0                       # ITB hits
system.cpu.dtb.fetch_misses                         0                       # ITB misses
system.cpu.dtb.fetch_acv                            0                       # ITB acv
system.cpu.dtb.fetch_accesses                       0                       # ITB accesses
system.cpu.dtb.read_hits                            1                       # DTB read hits
system.cpu.dtb.read_misses                          0                       # DTB read misses
system.cpu.dtb.read_acv                             0                       # DTB read access violations
system.cpu.dtb.read_accesses                        1                       # DTB read accesses
system.cpu.dtb.write_hits                           0                       # DTB write hits
system.cpu.dtb.write_misses                         0                       # DTB write misses
system.cpu.dtb.write_acv                            0                       # DTB write access violations
system.cpu.dtb.write_accesses                       0                       # DTB write accesses
system.cpu.dtb.data_hits                            1                       # DTB hits
system.cpu.dtb.data_misses                          0                       # DTB misses
system.cpu.dtb.data_acv                             0                       # DTB access violations
system.cpu.dtb.data_accesses                        1                       # DTB accesses
system.cpu.itb.fetch_hits                           4                       # ITB hits
system.cpu.itb.fetch_misses                         0                       # ITB misses
system.cpu.itb.fetch_acv                            0                       # ITB acv
system.cpu.itb.fetch_accesses                       4                       # ITB accesses
system.cpu.itb.read_hits                            0                       # DTB read hits
system.cpu.itb.read_misses                          0                       # DTB read misses
system.cpu.itb.read_acv                             0                       # DTB read access violations
system.cpu.itb.read_accesses                        0                       # DTB read accesses
system.cpu.itb.write_hits                           0                       # DTB write hits
system.cpu.itb.write_misses                         0                       # DTB write misses
system.cpu.itb.write_acv                            0                       # DTB write access violations
system.cpu.itb.write_accesses                       0                       # DTB write accesses
system.cpu.itb.data_hits                            0                       # DTB hits
system.cpu.itb.data_misses                          0                       # DTB misses
system.cpu.itb.data_acv                             0                       # DTB access violations
system.cpu.itb.data_accesses                        0                       # DTB accesses
system.cpu.workload.num_syscalls                    0                       # Number of system calls
system.cpu.pwrStateResidencyTicks::ON    1080282938031                       # Cumulative time (in ticks) in various power states
system.cpu.numCycles                              495                       # number of cpu cycles simulated
system.cpu.numWorkItemsStarted                      0                       # number of work items this cpu started
system.cpu.numWorkItemsCompleted                    0                       # number of work items this cpu completed
system.cpu.fetch.icacheStallCycles                 19                       # Number of cycles fetch is stalled on an Icache miss
system.cpu.fetch.Insts                             16                       # Number of instructions fetch has processed
system.cpu.fetch.Branches                           2                       # Number of branches that fetch encountered
system.cpu.fetch.Cycles                             2                       # Number of cycles fetch has run and was not squashing or blocked
system.cpu.fetch.SquashCycles                       5                       # Number of cycles fetch has spent squashing
system.cpu.fetch.PendingDrainCycles                 6                       # Number of cycles fetch has spent waiting on pipes to drain
system.cpu.fetch.CacheLines                         4                       # Number of cache lines fetched
system.cpu.fetch.IcacheSquashes                     3                       # Number of outstanding Icache misses that were squashed
system.cpu.fetch.rateDist::samples                 29                       # Number of instructions fetched each cycle (Total)
system.cpu.fetch.rateDist::mean              0.551724                       # Number of instructions fetched each cycle (Total)
system.cpu.fetch.rateDist::stdev             2.063046                       # Number of instructions fetched each cycle (Total)
system.cpu.fetch.rateDist::underflows               0      0.00%      0.00% # Number of instructions fetched each cycle (Total)
system.cpu.fetch.rateDist::0                       27     93.10%     93.10% # Number of instructions fetched each cycle (Total)
system.cpu.fetch.rateDist::1                        0      0.00%     93.10% # Number of instructions fetched each cycle (Total)
system.cpu.fetch.rateDist::2                        0      0.00%     93.10% # Number of instructions fetched each cycle (Total)
system.cpu.fetch.rateDist::3                        0      0.00%     93.10% # Number of instructions fetched each cycle (Total)
system.cpu.fetch.rateDist::4                        0      0.00%     93.10% # Number of instructions fetched each cycle (Total)
system.cpu.fetch.rateDist::5                        0      0.00%     93.10% # Number of instructions fetched each cycle (Total)
system.cpu.fetch.rateDist::6                        0      0.00%     93.10% # Number of instructions fetched each cycle (Total)
system.cpu.fetch.rateDist::7                        0      0.00%     93.10% # Number of instructions fetched each cycle (Total)
system.cpu.fetch.rateDist::8                        2      6.90%    100.00% # Number of instructions fetched each cycle (Total)
system.cpu.fetch.rateDist::overflows                0      0.00%    100.00% # Number of instructions fetched each cycle (Total)
system.cpu.fetch.rateDist::min_value                0                       # Number of instructions fetched each cycle (Total)
system.cpu.fetch.rateDist::max_value                8                       # Number of instructions fetched each cycle (Total)
system.cpu.fetch.rateDist::total                   29                       # Number of instructions fetched each cycle (Total)
system.cpu.fetch.branchRate                  0.004040                       # Number of branch fetches per cycle
system.cpu.fetch.rate                        0.032323                       # Number of inst fetches per cycle
system.cpu.decode.IdleCycles                       23                       # Number of cycles decode is idle
system.cpu.decode.BlockedCycles                     1                       # Number of cycles decode is blocked
system.cpu.decode.RunCycles                         2                       # Number of cycles decode is running
system.cpu.decode.SquashCycles                      3                       # Number of cycles decode is squashing
system.cpu.decode.DecodedInsts                     16                       # Number of instructions handled by decode
system.cpu.rename.SquashCycles                      3                       # Number of cycles rename is squashing
system.cpu.rename.IdleCycles                       22                       # Number of cycles rename is idle
system.cpu.rename.BlockCycles                       2                       # Number of cycles rename is blocking
system.cpu.rename.serializeStallCycles              0                       # count of cycles rename stalled for serializing inst
system.cpu.rename.RunCycles                         2                       # Number of cycles rename is running
system.cpu.rename.RenamedInsts                     16                       # Number of instructions processed by rename
system.cpu.rename.RenamedOperands                  13                       # Number of destination operands rename has renamed
system.cpu.rename.RenameLookups                    26                       # Number of register rename lookups that rename has made
system.cpu.rename.int_rename_lookups               12                       # Number of integer rename lookups
system.cpu.rename.fp_rename_lookups                14                       # Number of floating rename lookups
system.cpu.rename.CommittedMaps                     3                       # Number of HB maps that are committed
system.cpu.rename.UndoneMaps                       10                       # Number of HB maps that are undone due to squashing
system.cpu.rename.serializingInsts                  0                       # count of serializing insts renamed
system.cpu.rename.tempSerializingInsts              0                       # count of temporary serializing insts renamed
system.cpu.rename.skidInsts                         0                       # count of insts added to the skid buffer
system.cpu.memDep0.insertedLoads                    1                       # Number of loads inserted to the mem dependence unit.
system.cpu.memDep0.insertedStores                   1                       # Number of stores inserted to the mem dependence unit.
system.cpu.memDep0.conflictingLoads                 0                       # Number of conflicting loads.
system.cpu.memDep0.conflictingStores                0                       # Number of conflicting stores.
system.cpu.iq.iqInstsAdded                         16                       # Number of instructions added to the IQ (excludes non-spec)
system.cpu.iq.iqInstsIssued                         8                       # Number of instructions issued
system.cpu.iq.iqSquashedInstsExamined              13                       # Number of squashed instructions iterated over during squash; mainly for profiling
system.cpu.iq.iqSquashedOperandsExamined           16                       # Number of squashed operands that are examined and possibly removed from graph
system.cpu.iq.issued_per_cycle::samples            29                       # Number of insts issued each cycle
system.cpu.iq.issued_per_cycle::mean         0.275862                       # Number of insts issued each cycle
system.cpu.iq.issued_per_cycle::stdev        0.921821                       # Number of insts issued each cycle
system.cpu.iq.issued_per_cycle::underflows            0      0.00%      0.00% # Number of insts issued each cycle
system.cpu.iq.issued_per_cycle::0                  26     89.66%     89.66% # Number of insts issued each cycle
system.cpu.iq.issued_per_cycle::1                   1      3.45%     93.10% # Number of insts issued each cycle
system.cpu.iq.issued_per_cycle::2                   0      0.00%     93.10% # Number of insts issued each cycle
[...]
system.switch_cpus_1.iq.fu_busy_rate         0.002587                       # FU busy rate (busy events/executed inst)
system.switch_cpus_1.iq.int_inst_queue_reads   1809350877                       # Number of integer instruction queue reads
system.switch_cpus_1.iq.int_inst_queue_writes    644844027                       # Number of integer instruction queue writes
system.switch_cpus_1.iq.int_inst_queue_wakeup_accesses    566531042                       # Number of integer instruction queue wakeup accesses
system.switch_cpus_1.iq.fp_inst_queue_reads   1037965879                       # Number of floating instruction queue reads
system.switch_cpus_1.iq.fp_inst_queue_writes    632053721                       # Number of floating instruction queue writes
system.switch_cpus_1.iq.fp_inst_queue_wakeup_accesses    512234675                       # Number of floating instruction queue wakeup accesses
system.switch_cpus_1.iq.int_alu_accesses    570901169                       # Number of integer alu accesses
system.switch_cpus_1.iq.fp_alu_accesses     520177729                       # Number of floating point alu accesses
system.switch_cpus_1.iew.lsq.thread0.forwLoads     67519677                       # Number of loads that had data forwarded from stores
system.switch_cpus_1.iew.lsq.thread0.invAddrLoads            0                       # Number of loads ignored due to an invalid address
system.switch_cpus_1.iew.lsq.thread0.squashedLoads     24291205                       # Number of loads squashed
system.switch_cpus_1.iew.lsq.thread0.ignoredResponses         5125                       # Number of memory responses ignored because the instruction is squashed
system.switch_cpus_1.iew.lsq.thread0.memOrderViolation      1129166                       # Number of memory ordering violations
system.switch_cpus_1.iew.lsq.thread0.squashedStores     11446702                       # Number of stores squashed
system.switch_cpus_1.iew.lsq.thread0.invAddrSwpfs            0                       # Number of software prefetches ignored due to an invalid address
system.switch_cpus_1.iew.lsq.thread0.blockedLoads            0                       # Number of blocked loads due to partial load-store forwarding
system.switch_cpus_1.iew.lsq.thread0.rescheduledLoads            0                       # Number of loads that were rescheduled
system.switch_cpus_1.iew.lsq.thread0.cacheBlocked          734                       # Number of times an access to memory failed due to the cache being blocked
system.switch_cpus_1.iew.iewIdleCycles              0                       # Number of cycles IEW is idle
system.switch_cpus_1.iew.iewSquashCycles      5527649                       # Number of cycles IEW is squashing
system.switch_cpus_1.iew.iewBlockCycles      17207603                       # Number of cycles IEW is blocking
system.switch_cpus_1.iew.iewUnblockCycles      9347020                       # Number of cycles IEW is unblocking
system.switch_cpus_1.iew.iewDispatchedInsts   1138595940                       # Number of instructions dispatched to IQ
system.switch_cpus_1.iew.iewDispSquashedInsts      1624097                       # Number of squashed instructions skipped by dispatch
system.switch_cpus_1.iew.iewDispLoadInsts    224689812                       # Number of dispatched load instructions
system.switch_cpus_1.iew.iewDispStoreInsts     90550562                       # Number of dispatched store instructions
system.switch_cpus_1.iew.iewDispNonSpecInsts            0                       # Number of dispatched non-speculative instructions
system.switch_cpus_1.iew.iewIQFullEvents      7706935                       # Number of times the IQ has become full, causing a stall
system.switch_cpus_1.iew.iewLSQFullEvents      1552457                       # Number of times the LSQ has become full, causing a stall
system.switch_cpus_1.iew.memOrderViolationEvents      1129166                       # Number of memory order violations
system.switch_cpus_1.iew.predictedTakenIncorrect      3884284                       # Number of branches that were predicted taken incorrectly
system.switch_cpus_1.iew.predictedNotTakenIncorrect       646010                       # Number of branches that were predicted not taken incorrectly
system.switch_cpus_1.iew.branchMispredicts      4530294                       # Number of branch mispredicts detected at execute
system.switch_cpus_1.iew.iewExecutedInsts   1082608345                       # Number of executed instructions
system.switch_cpus_1.iew.iewExecLoadInsts    210059800                       # Number of load instructions executed
system.switch_cpus_1.iew.iewExecSquashedInsts      5664653                       # Number of squashed instructions skipped in execute
system.switch_cpus_1.iew.exec_swp                   0                       # number of swp insts executed
system.switch_cpus_1.iew.exec_nop              711616                       # number of nop insts executed
system.switch_cpus_1.iew.exec_refs          291269953                       # number of memory reference insts executed
system.switch_cpus_1.iew.exec_branches       94784448                       # Number of branches executed
system.switch_cpus_1.iew.exec_stores         81210153                       # Number of stores executed
system.switch_cpus_1.iew.exec_rate           1.620889                       # Inst execution rate
system.switch_cpus_1.iew.wb_sent           1079232500                       # cumulative count of insts sent to commit
system.switch_cpus_1.iew.wb_count          1078765717                       # cumulative count of insts written-back
system.switch_cpus_1.iew.wb_producers       754968116                       # num instructions producing a value
system.switch_cpus_1.iew.wb_consumers       878219763                       # num instructions consuming a value
system.switch_cpus_1.iew.wb_rate             1.615136                       # insts written-back per cycle
system.switch_cpus_1.iew.wb_fanout           0.859657                       # average fanout of values written-back
system.switch_cpus_1.commit.commitSquashedInsts    138006575                       # The number of squashed insts skipped by commit
system.switch_cpus_1.commit.branchMispredicts      4402942                       # The number of times a branch was mispredicted
system.switch_cpus_1.commit.committed_per_cycle::samples    646819578                       # Number of insts commited each cycle
system.switch_cpus_1.commit.committed_per_cycle::mean     1.546926                       # Number of insts commited each cycle
system.switch_cpus_1.commit.committed_per_cycle::stdev     2.418828                       # Number of insts commited each cycle
system.switch_cpus_1.commit.committed_per_cycle::underflows            0      0.00%      0.00% # Number of insts commited each cycle
system.switch_cpus_1.commit.committed_per_cycle::0    307475309     47.54%     47.54% # Number of insts commited each cycle
system.switch_cpus_1.commit.committed_per_cycle::1    160228463     24.77%     72.31% # Number of insts commited each cycle
system.switch_cpus_1.commit.committed_per_cycle::2     66485175     10.28%     82.59% # Number of insts commited each cycle
system.switch_cpus_1.commit.committed_per_cycle::3     26907961      4.16%     86.75% # Number of insts commited each cycle
system.switch_cpus_1.commit.committed_per_cycle::4      4175807      0.65%     87.39% # Number of insts commited each cycle
system.switch_cpus_1.commit.committed_per_cycle::5      1425860      0.22%     87.61% # Number of insts commited each cycle
system.switch_cpus_1.commit.committed_per_cycle::6      2882917      0.45%     88.06% # Number of insts commited each cycle
system.switch_cpus_1.commit.committed_per_cycle::7     32375311      5.01%     93.06% # Number of insts commited each cycle
system.switch_cpus_1.commit.committed_per_cycle::8     44862775      6.94%    100.00% # Number of insts commited each cycle
system.switch_cpus_1.commit.committed_per_cycle::overflows            0      0.00%    100.00% # Number of insts commited each cycle
system.switch_cpus_1.commit.committed_per_cycle::min_value            0                       # Number of insts commited each cycle
system.switch_cpus_1.commit.committed_per_cycle::max_value            8                       # Number of insts commited each cycle
system.switch_cpus_1.commit.committed_per_cycle::total    646819578                       # Number of insts commited each cycle
system.switch_cpus_1.commit.committedInsts   1000582103                       # Number of instructions committed
system.switch_cpus_1.commit.committedOps   1000582103                       # Number of ops (including micro ops) committed
system.switch_cpus_1.commit.swp_count               0                       # Number of s/w prefetches committed
system.switch_cpus_1.commit.refs            279502456                       # Number of memory references committed
system.switch_cpus_1.commit.loads           200398599                       # Number of loads committed
system.switch_cpus_1.commit.membars                 0                       # Number of memory barriers committed
system.switch_cpus_1.commit.branches         86093094                       # Number of branches committed
system.switch_cpus_1.commit.fp_insts        498140723                       # Number of committed floating point instructions.
system.switch_cpus_1.commit.int_insts       775872275                       # Number of committed integer instructions.
system.switch_cpus_1.commit.function_calls       475018                       # Number of function calls committed.
system.switch_cpus_1.commit.op_class_0::No_OpClass       591336      0.06%      0.06% # Class of committed instruction
system.switch_cpus_1.commit.op_class_0::IntAlu    498807798     49.85%     49.91% # Class of committed instruction
system.switch_cpus_1.commit.op_class_0::IntMult         4691      0.00%     49.91% # Class of committed instruction
system.switch_cpus_1.commit.op_class_0::IntDiv            0      0.00%     49.91% # Class of committed instruction
system.switch_cpus_1.commit.op_class_0::FloatAdd    148274810     14.82%     64.73% # Class of committed instruction
system.switch_cpus_1.commit.op_class_0::FloatCmp      6538252      0.65%     65.38% # Class of committed instruction
system.switch_cpus_1.commit.op_class_0::FloatCvt       150264      0.02%     65.40% # Class of committed instruction
system.switch_cpus_1.commit.op_class_0::FloatMult     66511720      6.65%     72.05% # Class of committed instruction
system.switch_cpus_1.commit.op_class_0::FloatMultAcc            0      0.00%     72.05% # Class of committed instruction
system.switch_cpus_1.commit.op_class_0::FloatDiv       200310      0.02%     72.07% # Class of committed instruction
system.switch_cpus_1.commit.op_class_0::FloatMisc            0      0.00%     72.07% # Class of committed instruction
system.switch_cpus_1.commit.op_class_0::FloatSqrt          466      0.00%     72.07% # Class of committed instruction
system.switch_cpus_1.commit.op_class_0::SimdAdd            0      0.00%     72.07% # Class of committed instruction
system.switch_cpus_1.commit.op_class_0::SimdAddAcc            0      0.00%     72.07% # Class of committed instruction
system.switch_cpus_1.commit.op_class_0::SimdAlu            0      0.00%     72.07% # Class of committed instruction
system.switch_cpus_1.commit.op_class_0::SimdCmp            0      0.00%     72.07% # Class of committed instruction
system.switch_cpus_1.commit.op_class_0::SimdCvt            0      0.00%     72.07% # Class of committed instruction
system.switch_cpus_1.commit.op_class_0::SimdMisc            0      0.00%     72.07% # Class of committed instruction
system.switch_cpus_1.commit.op_class_0::SimdMult            0      0.00%     72.07% # Class of committed instruction
system.switch_cpus_1.commit.op_class_0::SimdMultAcc            0      0.00%     72.07% # Class of committed instruction
system.switch_cpus_1.commit.op_class_0::SimdShift            0      0.00%     72.07% # Class of committed instruction
system.switch_cpus_1.commit.op_class_0::SimdShiftAcc            0      0.00%     72.07% # Class of committed instruction
system.switch_cpus_1.commit.op_class_0::SimdSqrt            0      0.00%     72.07% # Class of committed instruction
system.switch_cpus_1.commit.op_class_0::SimdFloatAdd            0      0.00%     72.07% # Class of committed instruction
system.switch_cpus_1.commit.op_class_0::SimdFloatAlu            0      0.00%     72.07% # Class of committed instruction
system.switch_cpus_1.commit.op_class_0::SimdFloatCmp            0      0.00%     72.07% # Class of committed instruction
system.switch_cpus_1.commit.op_class_0::SimdFloatCvt            0      0.00%     72.07% # Class of committed instruction
system.switch_cpus_1.commit.op_class_0::SimdFloatDiv            0      0.00%     72.07% # Class of committed instruction
system.switch_cpus_1.commit.op_class_0::SimdFloatMisc            0      0.00%     72.07% # Class of committed instruction
system.switch_cpus_1.commit.op_class_0::SimdFloatMult            0      0.00%     72.07% # Class of committed instruction
system.switch_cpus_1.commit.op_class_0::SimdFloatMultAcc            0      0.00%     72.07% # Class of committed instruction
system.switch_cpus_1.commit.op_class_0::SimdFloatSqrt            0      0.00%     72.07% # Class of committed instruction
system.switch_cpus_1.commit.op_class_0::MemRead      1650017      0.16%     72.23% # Class of committed instruction
system.switch_cpus_1.commit.op_class_0::MemWrite      1387538      0.14%     72.37% # Class of committed instruction
system.switch_cpus_1.commit.op_class_0::FloatMemRead    198748582     19.86%     92.23% # Class of committed instruction
system.switch_cpus_1.commit.op_class_0::FloatMemWrite     77716319      7.77%    100.00% # Class of committed instruction
system.switch_cpus_1.commit.op_class_0::IprAccess            0      0.00%    100.00% # Class of committed instruction
system.switch_cpus_1.commit.op_class_0::InstPrefetch            0      0.00%    100.00% # Class of committed instruction
system.switch_cpus_1.commit.op_class_0::total   1000582103                       # Class of committed instruction
system.switch_cpus_1.commit.bw_lim_events     44862775                       # number cycles where commit BW limit reached
system.switch_cpus_1.rob.rob_reads         1740541490                       # The number of ROB reads
system.switch_cpus_1.rob.rob_writes        2298384015                       # The number of ROB writes
system.switch_cpus_1.timesIdled                     1                       # Number of times that the entire CPU went into an idle state and unscheduled itself
system.switch_cpus_1.idleCycles                     3                       # Total number of cycles that the CPU has spent unscheduled due to idling
system.switch_cpus_1.committedInsts        1000000007                       # Number of Instructions Simulated
system.switch_cpus_1.committedOps          1000000007                       # Number of Ops (including micro ops) Simulated
system.switch_cpus_1.cpi                     0.667910                       # CPI: Cycles Per Instruction
system.switch_cpus_1.cpi_total               0.667910                       # CPI: Total CPI of All Threads
system.switch_cpus_1.ipc                     1.497207                       # IPC: Instructions Per Cycle
system.switch_cpus_1.ipc_total               1.497207                       # IPC: Total IPC of All Threads
system.switch_cpus_1.int_regfile_reads     1149229865                       # number of integer regfile reads
system.switch_cpus_1.int_regfile_writes     477770678                       # number of integer regfile writes
system.switch_cpus_1.fp_regfile_reads       528989251                       # number of floating regfile reads
system.switch_cpus_1.fp_regfile_writes      426026662                       # number of floating regfile writes
system.switch_cpus_1.misc_regfile_reads     148282692                       # number of misc regfile reads
system.switch_cpus_1.misc_regfile_writes         4620                       # number of misc regfile writes
system.tol3bus.snoop_filter.tot_requests       122261                       # Total number of requests made to the snoop filter.
system.tol3bus.snoop_filter.hit_single_requests        58900                       # Number of requests hitting in the snoop filter with a single holder of the requested data.
system.tol3bus.snoop_filter.hit_multi_requests            0                       # Number of requests hitting in the snoop filter with multiple (>1) holders of the requested data.
system.tol3bus.snoop_filter.tot_snoops              0                       # Total number of snoops made to the snoop filter.
system.tol3bus.snoop_filter.hit_single_snoops            0                       # Number of snoops hitting in the snoop filter with a single holder of the requested data.
system.tol3bus.snoop_filter.hit_multi_snoops            0                       # Number of snoops hitting in the snoop filter with multiple (>1) holders of the requested data.
system.tol3bus.pwrStateResidencyTicks::UNDEFINED 267482913069933                       # Cumulative time (in ticks) in various power states
system.tol3bus.trans_dist::ReadResp              7364                       # Transaction distribution
system.tol3bus.trans_dist::WritebackDirty        52725                       # Transaction distribution
system.tol3bus.trans_dist::CleanEvict            6182                       # Transaction distribution
system.tol3bus.trans_dist::ReadExReq            55997                       # Transaction distribution
system.tol3bus.trans_dist::ReadExResp           55997                       # Transaction distribution
system.tol3bus.trans_dist::ReadSharedReq         7364                       # Transaction distribution
system.tol3bus.pkt_count_system.cpu.l2.mem_side::system.l3.cpu_side       185622                       # Packet count per connected master and slave (bytes)
system.tol3bus.pkt_size_system.cpu.l2.mem_side::system.l3.cpu_side      7429056                       # Cumulative packet size per connected master and slave (bytes)
system.tol3bus.snoops                               7                       # Total snoops (count)
system.tol3bus.snoopTraffic                       448                       # Total snoop traffic (bytes)
system.tol3bus.snoop_fanout::samples            63368                       # Request fanout histogram
system.tol3bus.snoop_fanout::mean                   0                       # Request fanout histogram
system.tol3bus.snoop_fanout::stdev                  0                       # Request fanout histogram
system.tol3bus.snoop_fanout::underflows             0      0.00%      0.00% # Request fanout histogram
system.tol3bus.snoop_fanout::0                  63368    100.00%    100.00% # Request fanout histogram
system.tol3bus.snoop_fanout::1                      0      0.00%    100.00% # Request fanout histogram
system.tol3bus.snoop_fanout::overflows              0      0.00%    100.00% # Request fanout histogram
system.tol3bus.snoop_fanout::min_value              0                       # Request fanout histogram
system.tol3bus.snoop_fanout::max_value              0                       # Request fanout histogram
system.tol3bus.snoop_fanout::total              63368                       # Request fanout histogram
system.tol3bus.reqLayer0.occupancy           58268007                       # Layer occupancy (ticks)
system.tol3bus.reqLayer0.utilization              0.0                       # Layer utilization (%)
system.tol3bus.respLayer0.occupancy          42198426                       # Layer occupancy (ticks)
system.tol3bus.respLayer0.utilization             0.0                       # Layer utilization (%)

---------- End Simulation Statistics   ----------
