
---------- Begin Simulation Statistics ----------
sim_seconds                                  1.090634                       # Number of seconds simulated
sim_ticks                                1090634374899                       # Number of ticks simulated
final_tick                               31102048535949                       # Number of ticks from beginning of simulation (restored from checkpoints and never reset)
sim_freq                                 1000000000000                       # Frequency of simulated ticks
host_inst_rate                                 501962                       # Simulator instruction rate (inst/s)
host_op_rate                                   501962                       # Simulator op (including micro ops) rate (op/s)
host_tick_rate                              456213950                       # Simulator tick rate (ticks/s)
host_mem_usage                                2425276                       # Number of bytes of host memory used
host_seconds                                  2390.62                       # Real time elapsed on the host
sim_insts                                  1200000007                       # Number of instructions simulated
sim_ops                                    1200000007                       # Number of ops (including micro ops) simulated
system.voltage_domain.voltage                       1                       # Voltage in Volts
system.clk_domain.clock                          1000                       # Clock period in ticks
system.mem_ctrls0.pwrStateResidencyTicks::UNDEFINED 31102048535949                       # Cumulative time (in ticks) in various power states
system.mem_ctrls0.bytes_read::cpu.inst             64                       # Number of bytes read from this memory
system.mem_ctrls0.bytes_read::switch_cpus.inst       138368                       # Number of bytes read from this memory
system.mem_ctrls0.bytes_read::switch_cpus.data      3620416                       # Number of bytes read from this memory
system.mem_ctrls0.bytes_read::switch_cpus_1.inst       103296                       # Number of bytes read from this memory
system.mem_ctrls0.bytes_read::switch_cpus_1.data      1551232                       # Number of bytes read from this memory
system.mem_ctrls0.bytes_read::total           5413376                       # Number of bytes read from this memory
system.mem_ctrls0.bytes_inst_read::cpu.inst           64                       # Number of instructions bytes read from this memory
system.mem_ctrls0.bytes_inst_read::switch_cpus.inst       138368                       # Number of instructions bytes read from this memory
system.mem_ctrls0.bytes_inst_read::switch_cpus_1.inst       103296                       # Number of instructions bytes read from this memory
system.mem_ctrls0.bytes_inst_read::total       241728                       # Number of instructions bytes read from this memory
system.mem_ctrls0.bytes_written::writebacks       710848                       # Number of bytes written to this memory
system.mem_ctrls0.bytes_written::total         710848                       # Number of bytes written to this memory
system.mem_ctrls0.num_reads::cpu.inst               1                       # Number of read requests responded to by this memory
system.mem_ctrls0.num_reads::switch_cpus.inst         2162                       # Number of read requests responded to by this memory
system.mem_ctrls0.num_reads::switch_cpus.data        56569                       # Number of read requests responded to by this memory
system.mem_ctrls0.num_reads::switch_cpus_1.inst         1614                       # Number of read requests responded to by this memory
system.mem_ctrls0.num_reads::switch_cpus_1.data        24238                       # Number of read requests responded to by this memory
system.mem_ctrls0.num_reads::total              84584                       # Number of read requests responded to by this memory
system.mem_ctrls0.num_writes::writebacks        11107                       # Number of write requests responded to by this memory
system.mem_ctrls0.num_writes::total             11107                       # Number of write requests responded to by this memory
system.mem_ctrls0.bw_read::cpu.inst                59                       # Total read bandwidth from this memory (bytes/s)
system.mem_ctrls0.bw_read::switch_cpus.inst       126869                       # Total read bandwidth from this memory (bytes/s)
system.mem_ctrls0.bw_read::switch_cpus.data      3319551                       # Total read bandwidth from this memory (bytes/s)
system.mem_ctrls0.bw_read::switch_cpus_1.inst        94712                       # Total read bandwidth from this memory (bytes/s)
system.mem_ctrls0.bw_read::switch_cpus_1.data      1422321                       # Total read bandwidth from this memory (bytes/s)
system.mem_ctrls0.bw_read::total              4963511                       # Total read bandwidth from this memory (bytes/s)
system.mem_ctrls0.bw_inst_read::cpu.inst           59                       # Instruction read bandwidth from this memory (bytes/s)
system.mem_ctrls0.bw_inst_read::switch_cpus.inst       126869                       # Instruction read bandwidth from this memory (bytes/s)
system.mem_ctrls0.bw_inst_read::switch_cpus_1.inst        94712                       # Instruction read bandwidth from this memory (bytes/s)
system.mem_ctrls0.bw_inst_read::total          221640                       # Instruction read bandwidth from this memory (bytes/s)
system.mem_ctrls0.bw_write::writebacks         651775                       # Write bandwidth from this memory (bytes/s)
system.mem_ctrls0.bw_write::total              651775                       # Write bandwidth from this memory (bytes/s)
system.mem_ctrls0.bw_total::writebacks         651775                       # Total bandwidth to/from this memory (bytes/s)
system.mem_ctrls0.bw_total::cpu.inst               59                       # Total bandwidth to/from this memory (bytes/s)
system.mem_ctrls0.bw_total::switch_cpus.inst       126869                       # Total bandwidth to/from this memory (bytes/s)
system.mem_ctrls0.bw_total::switch_cpus.data      3319551                       # Total bandwidth to/from this memory (bytes/s)
system.mem_ctrls0.bw_total::switch_cpus_1.inst        94712                       # Total bandwidth to/from this memory (bytes/s)
system.mem_ctrls0.bw_total::switch_cpus_1.data      1422321                       # Total bandwidth to/from this memory (bytes/s)
system.mem_ctrls0.bw_total::total             5615286                       # Total bandwidth to/from this memory (bytes/s)
system.mem_ctrls0.readReqs                      84584                       # Number of read requests accepted
system.mem_ctrls0.writeReqs                     11107                       # Number of write requests accepted
system.mem_ctrls0.readBursts                    84584                       # Number of DRAM read bursts, including those serviced by the write queue
system.mem_ctrls0.writeBursts                   11107                       # Number of DRAM write bursts, including those merged in the write queue
system.mem_ctrls0.bytesReadDRAM               5409856                       # Total number of bytes read from DRAM
system.mem_ctrls0.bytesReadWrQ                   3520                       # Total number of bytes read from write queue
system.mem_ctrls0.bytesWritten                 709440                       # Total number of bytes written to DRAM
system.mem_ctrls0.bytesReadSys                5413376                       # Total read bytes from the system interface side
system.mem_ctrls0.bytesWrittenSys              710848                       # Total written bytes from the system interface side
system.mem_ctrls0.servicedByWrQ                    55                       # Number of DRAM read bursts serviced by the write queue
system.mem_ctrls0.mergedWrBursts                    0                       # Number of DRAM write bursts merged with an existing one
system.mem_ctrls0.neitherReadNorWriteReqs            0                       # Number of requests that are neither read nor write
system.mem_ctrls0.perBankRdBursts::0             5288                       # Per bank write bursts
system.mem_ctrls0.perBankRdBursts::1             5352                       # Per bank write bursts
system.mem_ctrls0.perBankRdBursts::2             5896                       # Per bank write bursts
system.mem_ctrls0.perBankRdBursts::3             5603                       # Per bank write bursts
system.mem_ctrls0.perBankRdBursts::4             5146                       # Per bank write bursts
system.mem_ctrls0.perBankRdBursts::5             5163                       # Per bank write bursts
system.mem_ctrls0.perBankRdBursts::6             4773                       # Per bank write bursts
system.mem_ctrls0.perBankRdBursts::7             4896                       # Per bank write bursts
system.mem_ctrls0.perBankRdBursts::8             4893                       # Per bank write bursts
system.mem_ctrls0.perBankRdBursts::9             5091                       # Per bank write bursts
system.mem_ctrls0.perBankRdBursts::10            4898                       # Per bank write bursts
system.mem_ctrls0.perBankRdBursts::11            4732                       # Per bank write bursts
system.mem_ctrls0.perBankRdBursts::12            5939                       # Per bank write bursts
system.mem_ctrls0.perBankRdBursts::13            5500                       # Per bank write bursts
system.mem_ctrls0.perBankRdBursts::14            5592                       # Per bank write bursts
system.mem_ctrls0.perBankRdBursts::15            5767                       # Per bank write bursts
system.mem_ctrls0.perBankWrBursts::0              681                       # Per bank write bursts
system.mem_ctrls0.perBankWrBursts::1              754                       # Per bank write bursts
system.mem_ctrls0.perBankWrBursts::2              806                       # Per bank write bursts
system.mem_ctrls0.perBankWrBursts::3              738                       # Per bank write bursts
system.mem_ctrls0.perBankWrBursts::4              692                       # Per bank write bursts
system.mem_ctrls0.perBankWrBursts::5              615                       # Per bank write bursts
system.mem_ctrls0.perBankWrBursts::6              540                       # Per bank write bursts
system.mem_ctrls0.perBankWrBursts::7              644                       # Per bank write bursts
system.mem_ctrls0.perBankWrBursts::8              622                       # Per bank write bursts
system.mem_ctrls0.perBankWrBursts::9              531                       # Per bank write bursts
system.mem_ctrls0.perBankWrBursts::10             550                       # Per bank write bursts
system.mem_ctrls0.perBankWrBursts::11             636                       # Per bank write bursts
system.mem_ctrls0.perBankWrBursts::12             904                       # Per bank write bursts
system.mem_ctrls0.perBankWrBursts::13             806                       # Per bank write bursts
system.mem_ctrls0.perBankWrBursts::14             831                       # Per bank write bursts
system.mem_ctrls0.perBankWrBursts::15             735                       # Per bank write bursts
system.mem_ctrls0.numRdRetry                        0                       # Number of times read queue was full causing retry
system.mem_ctrls0.numWrRetry                        0                       # Number of times write queue was full causing retry
system.mem_ctrls0.totGap                 1090633662279                       # Total gap between requests
system.mem_ctrls0.readPktSize::0                    0                       # Read request sizes (log2)
system.mem_ctrls0.readPktSize::1                    0                       # Read request sizes (log2)
system.mem_ctrls0.readPktSize::2                    0                       # Read request sizes (log2)
system.mem_ctrls0.readPktSize::3                    0                       # Read request sizes (log2)
system.mem_ctrls0.readPktSize::4                    0                       # Read request sizes (log2)
system.mem_ctrls0.readPktSize::5                    0                       # Read request sizes (log2)
system.mem_ctrls0.readPktSize::6                84584                       # Read request sizes (log2)
system.mem_ctrls0.writePktSize::0                   0                       # Write request sizes (log2)
system.mem_ctrls0.writePktSize::1                   0                       # Write request sizes (log2)
system.mem_ctrls0.writePktSize::2                   0                       # Write request sizes (log2)
system.mem_ctrls0.writePktSize::3                   0                       # Write request sizes (log2)
system.mem_ctrls0.writePktSize::4                   0                       # Write request sizes (log2)
system.mem_ctrls0.writePktSize::5                   0                       # Write request sizes (log2)
system.mem_ctrls0.writePktSize::6               11107                       # Write request sizes (log2)
system.mem_ctrls0.rdQLenPdf::0                  82267                       # What read queue length does an incoming req see
system.mem_ctrls0.rdQLenPdf::1                   2173                       # What read queue length does an incoming req see
system.mem_ctrls0.rdQLenPdf::2                     80                       # What read queue length does an incoming req see
system.mem_ctrls0.rdQLenPdf::3                      9                       # What read queue length does an incoming req see
system.mem_ctrls0.rdQLenPdf::4                      0                       # What read queue length does an incoming req see
system.mem_ctrls0.rdQLenPdf::5                      0                       # What read queue length does an incoming req see
system.mem_ctrls0.rdQLenPdf::6                      0                       # What read queue length does an incoming req see
system.mem_ctrls0.rdQLenPdf::7                      0                       # What read queue length does an incoming req see
system.mem_ctrls0.rdQLenPdf::8                      0                       # What read queue length does an incoming req see
system.mem_ctrls0.rdQLenPdf::9                      0                       # What read queue length does an incoming req see
system.mem_ctrls0.rdQLenPdf::10                     0                       # What read queue length does an incoming req see
system.mem_ctrls0.rdQLenPdf::11                     0                       # What read queue length does an incoming req see
system.mem_ctrls0.rdQLenPdf::12                     0                       # What read queue length does an incoming req see
system.mem_ctrls0.rdQLenPdf::13                     0                       # What read queue length does an incoming req see
system.mem_ctrls0.rdQLenPdf::14                     0                       # What read queue length does an incoming req see
system.mem_ctrls0.rdQLenPdf::15                     0                       # What read queue length does an incoming req see
system.mem_ctrls0.rdQLenPdf::16                     0                       # What read queue length does an incoming req see
system.mem_ctrls0.rdQLenPdf::17                     0                       # What read queue length does an incoming req see
system.mem_ctrls0.rdQLenPdf::18                     0                       # What read queue length does an incoming req see
system.mem_ctrls0.rdQLenPdf::19                     0                       # What read queue length does an incoming req see
system.mem_ctrls0.rdQLenPdf::20                     0                       # What read queue length does an incoming req see
system.mem_ctrls0.rdQLenPdf::21                     0                       # What read queue length does an incoming req see
system.mem_ctrls0.rdQLenPdf::22                     0                       # What read queue length does an incoming req see
system.mem_ctrls0.rdQLenPdf::23                     0                       # What read queue length does an incoming req see
system.mem_ctrls0.rdQLenPdf::24                     0                       # What read queue length does an incoming req see
system.mem_ctrls0.rdQLenPdf::25                     0                       # What read queue length does an incoming req see
system.mem_ctrls0.rdQLenPdf::26                     0                       # What read queue length does an incoming req see
system.mem_ctrls0.rdQLenPdf::27                     0                       # What read queue length does an incoming req see
system.mem_ctrls0.rdQLenPdf::28                     0                       # What read queue length does an incoming req see
system.mem_ctrls0.rdQLenPdf::29                     0                       # What read queue length does an incoming req see
system.mem_ctrls0.rdQLenPdf::30                     0                       # What read queue length does an incoming req see
system.mem_ctrls0.rdQLenPdf::31                     0                       # What read queue length does an incoming req see
system.mem_ctrls0.wrQLenPdf::0                      2                       # What write queue length does an incoming req see
system.mem_ctrls0.wrQLenPdf::1                      2                       # What write queue length does an incoming req see
system.mem_ctrls0.wrQLenPdf::2                      2                       # What write queue length does an incoming req see
system.mem_ctrls0.wrQLenPdf::3                      2                       # What write queue length does an incoming req see
system.mem_ctrls0.wrQLenPdf::4                      2                       # What write queue length does an incoming req see
system.mem_ctrls0.wrQLenPdf::5                      2                       # What write queue length does an incoming req see
system.mem_ctrls0.wrQLenPdf::6                      2                       # What write queue length does an incoming req see
system.mem_ctrls0.wrQLenPdf::7                      2                       # What write queue length does an incoming req see
system.mem_ctrls0.wrQLenPdf::8                      2                       # What write queue length does an incoming req see
system.mem_ctrls0.wrQLenPdf::9                      2                       # What write queue length does an incoming req see
system.mem_ctrls0.wrQLenPdf::10                     2                       # What write queue length does an incoming req see
system.mem_ctrls0.wrQLenPdf::11                     2                       # What write queue length does an incoming req see
system.mem_ctrls0.wrQLenPdf::12                     2                       # What write queue length does an incoming req see
system.mem_ctrls0.wrQLenPdf::13                     2                       # What write queue length does an incoming req see
system.mem_ctrls0.wrQLenPdf::14                     2                       # What write queue length does an incoming req see
system.mem_ctrls0.wrQLenPdf::15                   517                       # What write queue length does an incoming req see
system.mem_ctrls0.wrQLenPdf::16                   531                       # What write queue length does an incoming req see
system.mem_ctrls0.wrQLenPdf::17                   617                       # What write queue length does an incoming req see
system.mem_ctrls0.wrQLenPdf::18                   624                       # What write queue length does an incoming req see
system.mem_ctrls0.wrQLenPdf::19                   629                       # What write queue length does an incoming req see
system.mem_ctrls0.wrQLenPdf::20                   628                       # What write queue length does an incoming req see
system.mem_ctrls0.wrQLenPdf::21                   627                       # What write queue length does an incoming req see
system.mem_ctrls0.wrQLenPdf::22                   628                       # What write queue length does an incoming req see
system.mem_ctrls0.wrQLenPdf::23                   628                       # What write queue length does an incoming req see
system.mem_ctrls0.wrQLenPdf::24                   629                       # What write queue length does an incoming req see
system.mem_ctrls0.wrQLenPdf::25                   628                       # What write queue length does an incoming req see
system.mem_ctrls0.wrQLenPdf::26                   627                       # What write queue length does an incoming req see
system.mem_ctrls0.wrQLenPdf::27                   626                       # What write queue length does an incoming req see
system.mem_ctrls0.wrQLenPdf::28                   626                       # What write queue length does an incoming req see
system.mem_ctrls0.wrQLenPdf::29                   628                       # What write queue length does an incoming req see
system.mem_ctrls0.wrQLenPdf::30                   632                       # What write queue length does an incoming req see
system.mem_ctrls0.wrQLenPdf::31                   625                       # What write queue length does an incoming req see
system.mem_ctrls0.wrQLenPdf::32                   625                       # What write queue length does an incoming req see
system.mem_ctrls0.wrQLenPdf::33                     2                       # What write queue length does an incoming req see
system.mem_ctrls0.wrQLenPdf::34                     0                       # What write queue length does an incoming req see
system.mem_ctrls0.wrQLenPdf::35                     0                       # What write queue length does an incoming req see
system.mem_ctrls0.wrQLenPdf::36                     0                       # What write queue length does an incoming req see
system.mem_ctrls0.wrQLenPdf::37                     0                       # What write queue length does an incoming req see
system.mem_ctrls0.wrQLenPdf::38                     0                       # What write queue length does an incoming req see
system.mem_ctrls0.wrQLenPdf::39                     0                       # What write queue length does an incoming req see
system.mem_ctrls0.wrQLenPdf::40                     0                       # What write queue length does an incoming req see
system.mem_ctrls0.wrQLenPdf::41                     0                       # What write queue length does an incoming req see
system.mem_ctrls0.wrQLenPdf::42                     0                       # What write queue length does an incoming req see
system.mem_ctrls0.wrQLenPdf::43                     0                       # What write queue length does an incoming req see
system.mem_ctrls0.wrQLenPdf::44                     0                       # What write queue length does an incoming req see
system.mem_ctrls0.wrQLenPdf::45                     0                       # What write queue length does an incoming req see
system.mem_ctrls0.wrQLenPdf::46                     0                       # What write queue length does an incoming req see
system.mem_ctrls0.wrQLenPdf::47                     0                       # What write queue length does an incoming req see
system.mem_ctrls0.wrQLenPdf::48                     0                       # What write queue length does an incoming req see
system.mem_ctrls0.wrQLenPdf::49                     0                       # What write queue length does an incoming req see
system.mem_ctrls0.wrQLenPdf::50                     0                       # What write queue length does an incoming req see
system.mem_ctrls0.wrQLenPdf::51                     0                       # What write queue length does an incoming req see
system.mem_ctrls0.wrQLenPdf::52                     0                       # What write queue length does an incoming req see
system.mem_ctrls0.wrQLenPdf::53                     0                       # What write queue length does an incoming req see
system.mem_ctrls0.wrQLenPdf::54                     0                       # What write queue length does an incoming req see
system.mem_ctrls0.wrQLenPdf::55                     0                       # What write queue length does an incoming req see
system.mem_ctrls0.wrQLenPdf::56                     0                       # What write queue length does an incoming req see
system.mem_ctrls0.wrQLenPdf::57                     0                       # What write queue length does an incoming req see
system.mem_ctrls0.wrQLenPdf::58                     0                       # What write queue length does an incoming req see
system.mem_ctrls0.wrQLenPdf::59                     0                       # What write queue length does an incoming req see
system.mem_ctrls0.wrQLenPdf::60                     0                       # What write queue length does an incoming req see
system.mem_ctrls0.wrQLenPdf::61                     0                       # What write queue length does an incoming req see
system.mem_ctrls0.wrQLenPdf::62                     0                       # What write queue length does an incoming req see
system.mem_ctrls0.wrQLenPdf::63                     0                       # What write queue length does an incoming req see
system.mem_ctrls0.bytesPerActivate::samples        47509                       # Bytes accessed per row activation
system.mem_ctrls0.bytesPerActivate::mean   128.802879                       # Bytes accessed per row activation
system.mem_ctrls0.bytesPerActivate::gmean    94.485911                       # Bytes accessed per row activation
system.mem_ctrls0.bytesPerActivate::stdev   149.187152                       # Bytes accessed per row activation
system.mem_ctrls0.bytesPerActivate::0-127        32242     67.87%     67.87% # Bytes accessed per row activation
system.mem_ctrls0.bytesPerActivate::128-255         9308     19.59%     87.46% # Bytes accessed per row activation
system.mem_ctrls0.bytesPerActivate::256-383         2449      5.15%     92.61% # Bytes accessed per row activation
system.mem_ctrls0.bytesPerActivate::384-511         1474      3.10%     95.71% # Bytes accessed per row activation
system.mem_ctrls0.bytesPerActivate::512-639          823      1.73%     97.45% # Bytes accessed per row activation
system.mem_ctrls0.bytesPerActivate::640-767          519      1.09%     98.54% # Bytes accessed per row activation
system.mem_ctrls0.bytesPerActivate::768-895          244      0.51%     99.05% # Bytes accessed per row activation
system.mem_ctrls0.bytesPerActivate::896-1023          114      0.24%     99.29% # Bytes accessed per row activation
system.mem_ctrls0.bytesPerActivate::1024-1151          336      0.71%    100.00% # Bytes accessed per row activation
system.mem_ctrls0.bytesPerActivate::total        47509                       # Bytes accessed per row activation
system.mem_ctrls0.rdPerTurnAround::samples          626                       # Reads before turning the bus around for writes
system.mem_ctrls0.rdPerTurnAround::mean    134.988818                       # Reads before turning the bus around for writes
system.mem_ctrls0.rdPerTurnAround::stdev  1088.451517                       # Reads before turning the bus around for writes
system.mem_ctrls0.rdPerTurnAround::0-1023          625     99.84%     99.84% # Reads before turning the bus around for writes
system.mem_ctrls0.rdPerTurnAround::26624-27647            1      0.16%    100.00% # Reads before turning the bus around for writes
system.mem_ctrls0.rdPerTurnAround::total          626                       # Reads before turning the bus around for writes
system.mem_ctrls0.wrPerTurnAround::samples          626                       # Writes before turning the bus around for reads
system.mem_ctrls0.wrPerTurnAround::mean     17.707668                       # Writes before turning the bus around for reads
system.mem_ctrls0.wrPerTurnAround::gmean    17.688513                       # Writes before turning the bus around for reads
system.mem_ctrls0.wrPerTurnAround::stdev     0.823168                       # Writes before turning the bus around for reads
system.mem_ctrls0.wrPerTurnAround::16              95     15.18%     15.18% # Writes before turning the bus around for reads
system.mem_ctrls0.wrPerTurnAround::17              15      2.40%     17.57% # Writes before turning the bus around for reads
system.mem_ctrls0.wrPerTurnAround::18             503     80.35%     97.92% # Writes before turning the bus around for reads
system.mem_ctrls0.wrPerTurnAround::19              10      1.60%     99.52% # Writes before turning the bus around for reads
system.mem_ctrls0.wrPerTurnAround::20               2      0.32%     99.84% # Writes before turning the bus around for reads
system.mem_ctrls0.wrPerTurnAround::26               1      0.16%    100.00% # Writes before turning the bus around for reads
system.mem_ctrls0.wrPerTurnAround::total          626                       # Writes before turning the bus around for reads
system.mem_ctrls0.totQLat                  3728912820                       # Total ticks spent queuing
system.mem_ctrls0.totMemAccLat             5313831570                       # Total ticks spent from burst creation until serviced by the DRAM
system.mem_ctrls0.totBusLat                 422645000                       # Total ticks spent in databus transfers
system.mem_ctrls0.avgQLat                    44114.01                       # Average queueing delay per DRAM burst
system.mem_ctrls0.avgBusLat                   5000.00                       # Average bus latency per DRAM burst
system.mem_ctrls0.avgMemAccLat               62864.01                       # Average memory access latency per DRAM burst
system.mem_ctrls0.avgRdBW                        4.96                       # Average DRAM read bandwidth in MiByte/s
system.mem_ctrls0.avgWrBW                        0.65                       # Average achieved write bandwidth in MiByte/s
system.mem_ctrls0.avgRdBWSys                     4.96                       # Average system read bandwidth in MiByte/s
system.mem_ctrls0.avgWrBWSys                     0.65                       # Average system write bandwidth in MiByte/s
system.mem_ctrls0.peakBW                     12800.00                       # Theoretical peak bandwidth in MiByte/s
system.mem_ctrls0.busUtil                        0.04                       # Data bus utilization in percentage
system.mem_ctrls0.busUtilRead                    0.04                       # Data bus utilization in percentage for reads
system.mem_ctrls0.busUtilWrite                   0.01                       # Data bus utilization in percentage for writes
system.mem_ctrls0.avgRdQLen                      1.00                       # Average read queue length when enqueuing
system.mem_ctrls0.avgWrQLen                     17.92                       # Average write queue length when enqueuing
system.mem_ctrls0.readRowHits                   46447                       # Number of row buffer hits during reads
system.mem_ctrls0.writeRowHits                   1658                       # Number of row buffer hits during writes
system.mem_ctrls0.readRowHitRate                54.95                       # Row buffer hit rate for reads
system.mem_ctrls0.writeRowHitRate               14.93                       # Row buffer hit rate for writes
system.mem_ctrls0.avgGap                  11397452.87                       # Average gap between requests
system.mem_ctrls0.pageHitRate                   50.30                       # Row buffer hit rate, read and write combined
system.mem_ctrls0_0.actEnergy               171659880                       # Energy for activate commands per rank (pJ)
system.mem_ctrls0_0.preEnergy                91239390                       # Energy for precharge commands per rank (pJ)
system.mem_ctrls0_0.readEnergy              300715380                       # Energy for read commands per rank (pJ)
system.mem_ctrls0_0.writeEnergy              28553400                       # Energy for write commands per rank (pJ)
system.mem_ctrls0_0.refreshEnergy        7144575360.000002                       # Energy for refresh commands per rank (pJ)
system.mem_ctrls0_0.actBackEnergy          2393490990                       # Energy for active background per rank (pJ)
system.mem_ctrls0_0.preBackEnergy           345485760                       # Energy for precharge background per rank (pJ)
system.mem_ctrls0_0.actPowerDownEnergy    20138648910                       # Energy for active power-down per rank (pJ)
system.mem_ctrls0_0.prePowerDownEnergy     9442982880                       # Energy for precharge power-down per rank (pJ)
system.mem_ctrls0_0.selfRefreshEnergy    244965053985                       # Energy for self refresh per rank (pJ)
system.mem_ctrls0_0.totalEnergy          285025108995                       # Total energy per rank (pJ)
system.mem_ctrls0_0.averagePower           261.338828                       # Core power per rank (mW)
system.mem_ctrls0_0.totalIdleTime        1084475185476                       # Total Idle time Per DRAM Rank
system.mem_ctrls0_0.memoryStateTime::IDLE    622041718                       # Time in different power states
system.mem_ctrls0_0.memoryStateTime::REF   3035374000                       # Time in different power states
system.mem_ctrls0_0.memoryStateTime::SREF 1015724973121                       # Time in different power states
system.mem_ctrls0_0.memoryStateTime::PRE_PDN  24591041729                       # Time in different power states
system.mem_ctrls0_0.memoryStateTime::ACT   2497483677                       # Time in different power states
system.mem_ctrls0_0.memoryStateTime::ACT_PDN  44163460654                       # Time in different power states
system.mem_ctrls0_1.actEnergy               167554380                       # Energy for activate commands per rank (pJ)
system.mem_ctrls0_1.preEnergy                89057265                       # Energy for precharge commands per rank (pJ)
system.mem_ctrls0_1.readEnergy              302821680                       # Energy for read commands per rank (pJ)
system.mem_ctrls0_1.writeEnergy              29310300                       # Energy for write commands per rank (pJ)
system.mem_ctrls0_1.refreshEnergy        7158712080.000002                       # Energy for refresh commands per rank (pJ)
system.mem_ctrls0_1.actBackEnergy          2437013340                       # Energy for active background per rank (pJ)
system.mem_ctrls0_1.preBackEnergy           344891040                       # Energy for precharge background per rank (pJ)
system.mem_ctrls0_1.actPowerDownEnergy    20233044330                       # Energy for active power-down per rank (pJ)
system.mem_ctrls0_1.prePowerDownEnergy     9314542560                       # Energy for precharge power-down per rank (pJ)
system.mem_ctrls0_1.selfRefreshEnergy    244988718675                       # Energy for self refresh per rank (pJ)
system.mem_ctrls0_1.totalEnergy          285067510470                       # Total energy per rank (pJ)
system.mem_ctrls0_1.averagePower           261.377705                       # Core power per rank (mW)
system.mem_ctrls0_1.totalIdleTime        1084373701265                       # Total Idle time Per DRAM Rank
system.mem_ctrls0_1.memoryStateTime::IDLE    620238452                       # Time in different power states
system.mem_ctrls0_1.memoryStateTime::REF   3041522000                       # Time in different power states
system.mem_ctrls0_1.memoryStateTime::SREF 1015760450399                       # Time in different power states
system.mem_ctrls0_1.memoryStateTime::PRE_PDN  24256671070                       # Time in different power states
system.mem_ctrls0_1.memoryStateTime::ACT   2584927228                       # Time in different power states
system.mem_ctrls0_1.memoryStateTime::ACT_PDN  44370565750                       # Time in different power states
system.mem_ctrls1.pwrStateResidencyTicks::UNDEFINED 31102048535949                       # Cumulative time (in ticks) in various power states
system.mem_ctrls1.bytes_read::cpu.inst            192                       # Number of bytes read from this memory
system.mem_ctrls1.bytes_read::cpu.data            192                       # Number of bytes read from this memory
system.mem_ctrls1.bytes_read::switch_cpus.inst       136128                       # Number of bytes read from this memory
system.mem_ctrls1.bytes_read::switch_cpus.data      3627392                       # Number of bytes read from this memory
system.mem_ctrls1.bytes_read::switch_cpus_1.inst       106240                       # Number of bytes read from this memory
system.mem_ctrls1.bytes_read::switch_cpus_1.data      1555520                       # Number of bytes read from this memory
system.mem_ctrls1.bytes_read::total           5425664                       # Number of bytes read from this memory
system.mem_ctrls1.bytes_inst_read::cpu.inst          192                       # Number of instructions bytes read from this memory
system.mem_ctrls1.bytes_inst_read::switch_cpus.inst       136128                       # Number of instructions bytes read from this memory
system.mem_ctrls1.bytes_inst_read::switch_cpus_1.inst       106240                       # Number of instructions bytes read from this memory
system.mem_ctrls1.bytes_inst_read::total       242560                       # Number of instructions bytes read from this memory
system.mem_ctrls1.bytes_written::writebacks       718656                       # Number of bytes written to this memory
system.mem_ctrls1.bytes_written::total         718656                       # Number of bytes written to this memory
system.mem_ctrls1.num_reads::cpu.inst               3                       # Number of read requests responded to by this memory
system.mem_ctrls1.num_reads::cpu.data               3                       # Number of read requests responded to by this memory
system.mem_ctrls1.num_reads::switch_cpus.inst         2127                       # Number of read requests responded to by this memory
system.mem_ctrls1.num_reads::switch_cpus.data        56678                       # Number of read requests responded to by this memory
system.mem_ctrls1.num_reads::switch_cpus_1.inst         1660                       # Number of read requests responded to by this memory
system.mem_ctrls1.num_reads::switch_cpus_1.data        24305                       # Number of read requests responded to by this memory
system.mem_ctrls1.num_reads::total              84776                       # Number of read requests responded to by this memory
system.mem_ctrls1.num_writes::writebacks        11229                       # Number of write requests responded to by this memory
system.mem_ctrls1.num_writes::total             11229                       # Number of write requests responded to by this memory
system.mem_ctrls1.bw_read::cpu.inst               176                       # Total read bandwidth from this memory (bytes/s)
system.mem_ctrls1.bw_read::cpu.data               176                       # Total read bandwidth from this memory (bytes/s)
system.mem_ctrls1.bw_read::switch_cpus.inst       124815                       # Total read bandwidth from this memory (bytes/s)
system.mem_ctrls1.bw_read::switch_cpus.data      3325947                       # Total read bandwidth from this memory (bytes/s)
system.mem_ctrls1.bw_read::switch_cpus_1.inst        97411                       # Total read bandwidth from this memory (bytes/s)
system.mem_ctrls1.bw_read::switch_cpus_1.data      1426252                       # Total read bandwidth from this memory (bytes/s)
system.mem_ctrls1.bw_read::total              4974778                       # Total read bandwidth from this memory (bytes/s)
system.mem_ctrls1.bw_inst_read::cpu.inst          176                       # Instruction read bandwidth from this memory (bytes/s)
system.mem_ctrls1.bw_inst_read::switch_cpus.inst       124815                       # Instruction read bandwidth from this memory (bytes/s)
system.mem_ctrls1.bw_inst_read::switch_cpus_1.inst        97411                       # Instruction read bandwidth from this memory (bytes/s)
system.mem_ctrls1.bw_inst_read::total          222403                       # Instruction read bandwidth from this memory (bytes/s)
system.mem_ctrls1.bw_write::writebacks         658934                       # Write bandwidth from this memory (bytes/s)
system.mem_ctrls1.bw_write::total              658934                       # Write bandwidth from this memory (bytes/s)
system.mem_ctrls1.bw_total::writebacks         658934                       # Total bandwidth to/from this memory (bytes/s)
system.mem_ctrls1.bw_total::cpu.inst              176                       # Total bandwidth to/from this memory (bytes/s)
system.mem_ctrls1.bw_total::cpu.data              176                       # Total bandwidth to/from this memory (bytes/s)
system.mem_ctrls1.bw_total::switch_cpus.inst       124815                       # Total bandwidth to/from this memory (bytes/s)
system.mem_ctrls1.bw_total::switch_cpus.data      3325947                       # Total bandwidth to/from this memory (bytes/s)
system.mem_ctrls1.bw_total::switch_cpus_1.inst        97411                       # Total bandwidth to/from this memory (bytes/s)
system.mem_ctrls1.bw_total::switch_cpus_1.data      1426252                       # Total bandwidth to/from this memory (bytes/s)
system.mem_ctrls1.bw_total::total             5633712                       # Total bandwidth to/from this memory (bytes/s)
system.mem_ctrls1.readReqs                      84776                       # Number of read requests accepted
system.mem_ctrls1.writeReqs                     11229                       # Number of write requests accepted
system.mem_ctrls1.readBursts                    84776                       # Number of DRAM read bursts, including those serviced by the write queue
system.mem_ctrls1.writeBursts                   11229                       # Number of DRAM write bursts, including those merged in the write queue
system.mem_ctrls1.bytesReadDRAM               5423168                       # Total number of bytes read from DRAM
system.mem_ctrls1.bytesReadWrQ                   2496                       # Total number of bytes read from write queue
system.mem_ctrls1.bytesWritten                 717120                       # Total number of bytes written to DRAM
system.mem_ctrls1.bytesReadSys                5425664                       # Total read bytes from the system interface side
system.mem_ctrls1.bytesWrittenSys              718656                       # Total written bytes from the system interface side
system.mem_ctrls1.servicedByWrQ                    39                       # Number of DRAM read bursts serviced by the write queue
system.mem_ctrls1.mergedWrBursts                    0                       # Number of DRAM write bursts merged with an existing one
system.mem_ctrls1.neitherReadNorWriteReqs            0                       # Number of requests that are neither read nor write
system.mem_ctrls1.perBankRdBursts::0             5282                       # Per bank write bursts
system.mem_ctrls1.perBankRdBursts::1             5391                       # Per bank write bursts
system.mem_ctrls1.perBankRdBursts::2             5839                       # Per bank write bursts
system.mem_ctrls1.perBankRdBursts::3             5573                       # Per bank write bursts
system.mem_ctrls1.perBankRdBursts::4             5193                       # Per bank write bursts
system.mem_ctrls1.perBankRdBursts::5             5099                       # Per bank write bursts
system.mem_ctrls1.perBankRdBursts::6             4854                       # Per bank write bursts
system.mem_ctrls1.perBankRdBursts::7             4838                       # Per bank write bursts
system.mem_ctrls1.perBankRdBursts::8             5127                       # Per bank write bursts
system.mem_ctrls1.perBankRdBursts::9             4998                       # Per bank write bursts
system.mem_ctrls1.perBankRdBursts::10            4919                       # Per bank write bursts
system.mem_ctrls1.perBankRdBursts::11            4707                       # Per bank write bursts
system.mem_ctrls1.perBankRdBursts::12            5953                       # Per bank write bursts
system.mem_ctrls1.perBankRdBursts::13            5562                       # Per bank write bursts
system.mem_ctrls1.perBankRdBursts::14            5579                       # Per bank write bursts
system.mem_ctrls1.perBankRdBursts::15            5823                       # Per bank write bursts
system.mem_ctrls1.perBankWrBursts::0              712                       # Per bank write bursts
system.mem_ctrls1.perBankWrBursts::1              721                       # Per bank write bursts
system.mem_ctrls1.perBankWrBursts::2              753                       # Per bank write bursts
system.mem_ctrls1.perBankWrBursts::3              740                       # Per bank write bursts
system.mem_ctrls1.perBankWrBursts::4              729                       # Per bank write bursts
system.mem_ctrls1.perBankWrBursts::5              635                       # Per bank write bursts
system.mem_ctrls1.perBankWrBursts::6              527                       # Per bank write bursts
system.mem_ctrls1.perBankWrBursts::7              649                       # Per bank write bursts
system.mem_ctrls1.perBankWrBursts::8              713                       # Per bank write bursts
system.mem_ctrls1.perBankWrBursts::9              500                       # Per bank write bursts
system.mem_ctrls1.perBankWrBursts::10             592                       # Per bank write bursts
system.mem_ctrls1.perBankWrBursts::11             619                       # Per bank write bursts
system.mem_ctrls1.perBankWrBursts::12             850                       # Per bank write bursts
system.mem_ctrls1.perBankWrBursts::13             809                       # Per bank write bursts
system.mem_ctrls1.perBankWrBursts::14             848                       # Per bank write bursts
system.mem_ctrls1.perBankWrBursts::15             808                       # Per bank write bursts
system.mem_ctrls1.numRdRetry                        0                       # Number of times read queue was full causing retry
system.mem_ctrls1.numWrRetry                        0                       # Number of times write queue was full causing retry
system.mem_ctrls1.totGap                 1090631794149                       # Total gap between requests
system.mem_ctrls1.readPktSize::0                    0                       # Read request sizes (log2)
system.mem_ctrls1.readPktSize::1                    0                       # Read request sizes (log2)
system.mem_ctrls1.readPktSize::2                    0                       # Read request sizes (log2)
system.mem_ctrls1.readPktSize::3                    0                       # Read request sizes (log2)
system.mem_ctrls1.readPktSize::4                    0                       # Read request sizes (log2)
system.mem_ctrls1.readPktSize::5                    0                       # Read request sizes (log2)
system.mem_ctrls1.readPktSize::6                84776                       # Read request sizes (log2)
system.mem_ctrls1.writePktSize::0                   0                       # Write request sizes (log2)
system.mem_ctrls1.writePktSize::1                   0                       # Write request sizes (log2)
system.mem_ctrls1.writePktSize::2                   0                       # Write request sizes (log2)
system.mem_ctrls1.writePktSize::3                   0                       # Write request sizes (log2)
system.mem_ctrls1.writePktSize::4                   0                       # Write request sizes (log2)
system.mem_ctrls1.writePktSize::5                   0                       # Write request sizes (log2)
system.mem_ctrls1.writePktSize::6               11229                       # Write request sizes (log2)
system.mem_ctrls1.rdQLenPdf::0                  82509                       # What read queue length does an incoming req see
system.mem_ctrls1.rdQLenPdf::1                   2128                       # What read queue length does an incoming req see
system.mem_ctrls1.rdQLenPdf::2                     89                       # What read queue length does an incoming req see
system.mem_ctrls1.rdQLenPdf::3                     11                       # What read queue length does an incoming req see
system.mem_ctrls1.rdQLenPdf::4                      0                       # What read queue length does an incoming req see
system.mem_ctrls1.rdQLenPdf::5                      0                       # What read queue length does an incoming req see
system.mem_ctrls1.rdQLenPdf::6                      0                       # What read queue length does an incoming req see
system.mem_ctrls1.rdQLenPdf::7                      0                       # What read queue length does an incoming req see
system.mem_ctrls1.rdQLenPdf::8                      0                       # What read queue length does an incoming req see
system.mem_ctrls1.rdQLenPdf::9                      0                       # What read queue length does an incoming req see
system.mem_ctrls1.rdQLenPdf::10                     0                       # What read queue length does an incoming req see
system.mem_ctrls1.rdQLenPdf::11                     0                       # What read queue length does an incoming req see
system.mem_ctrls1.rdQLenPdf::12                     0                       # What read queue length does an incoming req see
system.mem_ctrls1.rdQLenPdf::13                     0                       # What read queue length does an incoming req see
system.mem_ctrls1.rdQLenPdf::14                     0                       # What read queue length does an incoming req see
system.mem_ctrls1.rdQLenPdf::15                     0                       # What read queue length does an incoming req see
system.mem_ctrls1.rdQLenPdf::16                     0                       # What read queue length does an incoming req see
system.mem_ctrls1.rdQLenPdf::17                     0                       # What read queue length does an incoming req see
system.mem_ctrls1.rdQLenPdf::18                     0                       # What read queue length does an incoming req see
system.mem_ctrls1.rdQLenPdf::19                     0                       # What read queue length does an incoming req see
system.mem_ctrls1.rdQLenPdf::20                     0                       # What read queue length does an incoming req see
system.mem_ctrls1.rdQLenPdf::21                     0                       # What read queue length does an incoming req see
system.mem_ctrls1.rdQLenPdf::22                     0                       # What read queue length does an incoming req see
system.mem_ctrls1.rdQLenPdf::23                     0                       # What read queue length does an incoming req see
system.mem_ctrls1.rdQLenPdf::24                     0                       # What read queue length does an incoming req see
system.mem_ctrls1.rdQLenPdf::25                     0                       # What read queue length does an incoming req see
system.mem_ctrls1.rdQLenPdf::26                     0                       # What read queue length does an incoming req see
system.mem_ctrls1.rdQLenPdf::27                     0                       # What read queue length does an incoming req see
system.mem_ctrls1.rdQLenPdf::28                     0                       # What read queue length does an incoming req see
system.mem_ctrls1.rdQLenPdf::29                     0                       # What read queue length does an incoming req see
system.mem_ctrls1.rdQLenPdf::30                     0                       # What read queue length does an incoming req see
system.mem_ctrls1.rdQLenPdf::31                     0                       # What read queue length does an incoming req see
system.mem_ctrls1.wrQLenPdf::0                      2                       # What write queue length does an incoming req see
system.mem_ctrls1.wrQLenPdf::1                      2                       # What write queue length does an incoming req see
system.mem_ctrls1.wrQLenPdf::2                      2                       # What write queue length does an incoming req see
system.mem_ctrls1.wrQLenPdf::3                      2                       # What write queue length does an incoming req see
system.mem_ctrls1.wrQLenPdf::4                      2                       # What write queue length does an incoming req see
system.mem_ctrls1.wrQLenPdf::5                      2                       # What write queue length does an incoming req see
system.mem_ctrls1.wrQLenPdf::6                      2                       # What write queue length does an incoming req see
system.mem_ctrls1.wrQLenPdf::7                      2                       # What write queue length does an incoming req see
system.mem_ctrls1.wrQLenPdf::8                      2                       # What write queue length does an incoming req see
system.mem_ctrls1.wrQLenPdf::9                      2                       # What write queue length does an incoming req see
system.mem_ctrls1.wrQLenPdf::10                     2                       # What write queue length does an incoming req see
system.mem_ctrls1.wrQLenPdf::11                     2                       # What write queue length does an incoming req see
system.mem_ctrls1.wrQLenPdf::12                     2                       # What write queue length does an incoming req see
system.mem_ctrls1.wrQLenPdf::13                     2                       # What write queue length does an incoming req see
system.mem_ctrls1.wrQLenPdf::14                     2                       # What write queue length does an incoming req see
system.mem_ctrls1.wrQLenPdf::15                   534                       # What write queue length does an incoming req see
system.mem_ctrls1.wrQLenPdf::16                   553                       # What write queue length does an incoming req see
system.mem_ctrls1.wrQLenPdf::17                   626                       # What write queue length does an incoming req see
system.mem_ctrls1.wrQLenPdf::18                   633                       # What write queue length does an incoming req see
system.mem_ctrls1.wrQLenPdf::19                   635                       # What write queue length does an incoming req see
system.mem_ctrls1.wrQLenPdf::20                   632                       # What write queue length does an incoming req see
system.mem_ctrls1.wrQLenPdf::21                   631                       # What write queue length does an incoming req see
system.mem_ctrls1.wrQLenPdf::22                   634                       # What write queue length does an incoming req see
system.mem_ctrls1.wrQLenPdf::23                   635                       # What write queue length does an incoming req see
system.mem_ctrls1.wrQLenPdf::24                   631                       # What write queue length does an incoming req see
system.mem_ctrls1.wrQLenPdf::25                   632                       # What write queue length does an incoming req see
system.mem_ctrls1.wrQLenPdf::26                   630                       # What write queue length does an incoming req see
system.mem_ctrls1.wrQLenPdf::27                   631                       # What write queue length does an incoming req see
system.mem_ctrls1.wrQLenPdf::28                   633                       # What write queue length does an incoming req see
system.mem_ctrls1.wrQLenPdf::29                   634                       # What write queue length does an incoming req see
system.mem_ctrls1.wrQLenPdf::30                   633                       # What write queue length does an incoming req see
system.mem_ctrls1.wrQLenPdf::31                   630                       # What write queue length does an incoming req see
system.mem_ctrls1.wrQLenPdf::32                   630                       # What write queue length does an incoming req see
system.mem_ctrls1.wrQLenPdf::33                     2                       # What write queue length does an incoming req see
system.mem_ctrls1.wrQLenPdf::34                     0                       # What write queue length does an incoming req see
system.mem_ctrls1.wrQLenPdf::35                     0                       # What write queue length does an incoming req see
system.mem_ctrls1.wrQLenPdf::36                     0                       # What write queue length does an incoming req see
system.mem_ctrls1.wrQLenPdf::37                     0                       # What write queue length does an incoming req see
system.mem_ctrls1.wrQLenPdf::38                     0                       # What write queue length does an incoming req see
system.mem_ctrls1.wrQLenPdf::39                     0                       # What write queue length does an incoming req see
system.mem_ctrls1.wrQLenPdf::40                     0                       # What write queue length does an incoming req see
system.mem_ctrls1.wrQLenPdf::41                     0                       # What write queue length does an incoming req see
system.mem_ctrls1.wrQLenPdf::42                     0                       # What write queue length does an incoming req see
system.mem_ctrls1.wrQLenPdf::43                     0                       # What write queue length does an incoming req see
system.mem_ctrls1.wrQLenPdf::44                     0                       # What write queue length does an incoming req see
system.mem_ctrls1.wrQLenPdf::45                     0                       # What write queue length does an incoming req see
system.mem_ctrls1.wrQLenPdf::46                     0                       # What write queue length does an incoming req see
system.mem_ctrls1.wrQLenPdf::47                     0                       # What write queue length does an incoming req see
system.mem_ctrls1.wrQLenPdf::48                     0                       # What write queue length does an incoming req see
system.mem_ctrls1.wrQLenPdf::49                     0                       # What write queue length does an incoming req see
system.mem_ctrls1.wrQLenPdf::50                     0                       # What write queue length does an incoming req see
system.mem_ctrls1.wrQLenPdf::51                     0                       # What write queue length does an incoming req see
system.mem_ctrls1.wrQLenPdf::52                     0                       # What write queue length does an incoming req see
system.mem_ctrls1.wrQLenPdf::53                     0                       # What write queue length does an incoming req see
system.mem_ctrls1.wrQLenPdf::54                     0                       # What write queue length does an incoming req see
system.mem_ctrls1.wrQLenPdf::55                     0                       # What write queue length does an incoming req see
system.mem_ctrls1.wrQLenPdf::56                     0                       # What write queue length does an incoming req see
system.mem_ctrls1.wrQLenPdf::57                     0                       # What write queue length does an incoming req see
system.mem_ctrls1.wrQLenPdf::58                     0                       # What write queue length does an incoming req see
system.mem_ctrls1.wrQLenPdf::59                     0                       # What write queue length does an incoming req see
system.mem_ctrls1.wrQLenPdf::60                     0                       # What write queue length does an incoming req see
system.mem_ctrls1.wrQLenPdf::61                     0                       # What write queue length does an incoming req see
system.mem_ctrls1.wrQLenPdf::62                     0                       # What write queue length does an incoming req see
system.mem_ctrls1.wrQLenPdf::63                     0                       # What write queue length does an incoming req see
system.mem_ctrls1.bytesPerActivate::samples        47764                       # Bytes accessed per row activation
system.mem_ctrls1.bytesPerActivate::mean   128.553387                       # Bytes accessed per row activation
system.mem_ctrls1.bytesPerActivate::gmean    94.355528                       # Bytes accessed per row activation
system.mem_ctrls1.bytesPerActivate::stdev   148.845684                       # Bytes accessed per row activation
system.mem_ctrls1.bytesPerActivate::0-127        32445     67.93%     67.93% # Bytes accessed per row activation
system.mem_ctrls1.bytesPerActivate::128-255         9388     19.65%     87.58% # Bytes accessed per row activation
system.mem_ctrls1.bytesPerActivate::256-383         2439      5.11%     92.69% # Bytes accessed per row activation
system.mem_ctrls1.bytesPerActivate::384-511         1427      2.99%     95.68% # Bytes accessed per row activation
system.mem_ctrls1.bytesPerActivate::512-639          833      1.74%     97.42% # Bytes accessed per row activation
system.mem_ctrls1.bytesPerActivate::640-767          544      1.14%     98.56% # Bytes accessed per row activation
system.mem_ctrls1.bytesPerActivate::768-895          255      0.53%     99.09% # Bytes accessed per row activation
system.mem_ctrls1.bytesPerActivate::896-1023          114      0.24%     99.33% # Bytes accessed per row activation
system.mem_ctrls1.bytesPerActivate::1024-1151          319      0.67%    100.00% # Bytes accessed per row activation
system.mem_ctrls1.bytesPerActivate::total        47764                       # Bytes accessed per row activation
system.mem_ctrls1.rdPerTurnAround::samples          631                       # Reads before turning the bus around for writes
system.mem_ctrls1.rdPerTurnAround::mean    134.236133                       # Reads before turning the bus around for writes
system.mem_ctrls1.rdPerTurnAround::gmean    78.166185                       # Reads before turning the bus around for writes
system.mem_ctrls1.rdPerTurnAround::stdev  1085.122988                       # Reads before turning the bus around for writes
system.mem_ctrls1.rdPerTurnAround::0-1023          630     99.84%     99.84% # Reads before turning the bus around for writes
system.mem_ctrls1.rdPerTurnAround::26624-27647            1      0.16%    100.00% # Reads before turning the bus around for writes
system.mem_ctrls1.rdPerTurnAround::total          631                       # Reads before turning the bus around for writes
system.mem_ctrls1.wrPerTurnAround::samples          631                       # Writes before turning the bus around for reads
system.mem_ctrls1.wrPerTurnAround::mean     17.757528                       # Writes before turning the bus around for reads
system.mem_ctrls1.wrPerTurnAround::gmean    17.742473                       # Writes before turning the bus around for reads
system.mem_ctrls1.wrPerTurnAround::stdev     0.714811                       # Writes before turning the bus around for reads
system.mem_ctrls1.wrPerTurnAround::16              79     12.52%     12.52% # Writes before turning the bus around for reads
system.mem_ctrls1.wrPerTurnAround::17              18      2.85%     15.37% # Writes before turning the bus around for reads
system.mem_ctrls1.wrPerTurnAround::18             512     81.14%     96.51% # Writes before turning the bus around for reads
system.mem_ctrls1.wrPerTurnAround::19              21      3.33%     99.84% # Writes before turning the bus around for reads
system.mem_ctrls1.wrPerTurnAround::20               1      0.16%    100.00% # Writes before turning the bus around for reads
system.mem_ctrls1.wrPerTurnAround::total          631                       # Writes before turning the bus around for reads
system.mem_ctrls1.totQLat                  3726506174                       # Total ticks spent queuing
system.mem_ctrls1.totMemAccLat             5315324924                       # Total ticks spent from burst creation until serviced by the DRAM
system.mem_ctrls1.totBusLat                 423685000                       # Total ticks spent in databus transfers
system.mem_ctrls1.avgQLat                    43977.32                       # Average queueing delay per DRAM burst
system.mem_ctrls1.avgBusLat                   5000.00                       # Average bus latency per DRAM burst
system.mem_ctrls1.avgMemAccLat               62727.32                       # Average memory access latency per DRAM burst
system.mem_ctrls1.avgRdBW                        4.97                       # Average DRAM read bandwidth in MiByte/s
system.mem_ctrls1.avgWrBW                        0.66                       # Average achieved write bandwidth in MiByte/s
system.mem_ctrls1.avgRdBWSys                     4.97                       # Average system read bandwidth in MiByte/s
system.mem_ctrls1.avgWrBWSys                     0.66                       # Average system write bandwidth in MiByte/s
system.mem_ctrls1.peakBW                     12800.00                       # Theoretical peak bandwidth in MiByte/s
system.mem_ctrls1.busUtil                        0.04                       # Data bus utilization in percentage
system.mem_ctrls1.busUtilRead                    0.04                       # Data bus utilization in percentage for reads
system.mem_ctrls1.busUtilWrite                   0.01                       # Data bus utilization in percentage for writes
system.mem_ctrls1.avgRdQLen                      1.00                       # Average read queue length when enqueuing
system.mem_ctrls1.avgWrQLen                     18.24                       # Average write queue length when enqueuing
system.mem_ctrls1.readRowHits                   46509                       # Number of row buffer hits during reads
system.mem_ctrls1.writeRowHits                   1668                       # Number of row buffer hits during writes
system.mem_ctrls1.readRowHitRate                54.89                       # Row buffer hit rate for reads
system.mem_ctrls1.writeRowHitRate               14.85                       # Row buffer hit rate for writes
system.mem_ctrls1.avgGap                  11360156.18                       # Average gap between requests
system.mem_ctrls1.pageHitRate                   50.20                       # Row buffer hit rate, read and write combined
system.mem_ctrls1_0.actEnergy               171467100                       # Energy for activate commands per rank (pJ)
system.mem_ctrls1_0.preEnergy                91133130                       # Energy for precharge commands per rank (pJ)
system.mem_ctrls1_0.readEnergy              300372660                       # Energy for read commands per rank (pJ)
system.mem_ctrls1_0.writeEnergy              28532520                       # Energy for write commands per rank (pJ)
system.mem_ctrls1_0.refreshEnergy        7085569920.000002                       # Energy for refresh commands per rank (pJ)
system.mem_ctrls1_0.actBackEnergy          2360441820                       # Energy for active background per rank (pJ)
system.mem_ctrls1_0.preBackEnergy           340383840                       # Energy for precharge background per rank (pJ)
system.mem_ctrls1_0.actPowerDownEnergy    20142732960                       # Energy for active power-down per rank (pJ)
system.mem_ctrls1_0.prePowerDownEnergy     9257537280                       # Energy for precharge power-down per rank (pJ)
system.mem_ctrls1_0.selfRefreshEnergy    245084711490                       # Energy for self refresh per rank (pJ)
system.mem_ctrls1_0.totalEnergy          284864837970                       # Total energy per rank (pJ)
system.mem_ctrls1_0.averagePower           261.191876                       # Core power per rank (mW)
system.mem_ctrls1_0.totalIdleTime        1084565318466                       # Total Idle time Per DRAM Rank
system.mem_ctrls1_0.memoryStateTime::IDLE    609049099                       # Time in different power states
system.mem_ctrls1_0.memoryStateTime::REF   3010228000                       # Time in different power states
system.mem_ctrls1_0.memoryStateTime::SREF 1016286381140                       # Time in different power states
system.mem_ctrls1_0.memoryStateTime::PRE_PDN  24108215516                       # Time in different power states
system.mem_ctrls1_0.memoryStateTime::ACT   2447936575                       # Time in different power states
system.mem_ctrls1_0.memoryStateTime::ACT_PDN  44172564569                       # Time in different power states
system.mem_ctrls1_1.actEnergy               169575000                       # Energy for activate commands per rank (pJ)
system.mem_ctrls1_1.preEnergy                90131250                       # Energy for precharge commands per rank (pJ)
system.mem_ctrls1_1.readEnergy              304649520                       # Energy for read commands per rank (pJ)
system.mem_ctrls1_1.writeEnergy              29957580                       # Energy for write commands per rank (pJ)
system.mem_ctrls1_1.refreshEnergy        7139658240.000002                       # Energy for refresh commands per rank (pJ)
system.mem_ctrls1_1.actBackEnergy          2407300380                       # Energy for active background per rank (pJ)
system.mem_ctrls1_1.preBackEnergy           344248320                       # Energy for precharge background per rank (pJ)
system.mem_ctrls1_1.actPowerDownEnergy    20192511060                       # Energy for active power-down per rank (pJ)
system.mem_ctrls1_1.prePowerDownEnergy     9298223040                       # Energy for precharge power-down per rank (pJ)
system.mem_ctrls1_1.selfRefreshEnergy    245033124360                       # Energy for self refresh per rank (pJ)
system.mem_ctrls1_1.totalEnergy          285011393940                       # Total energy per rank (pJ)
system.mem_ctrls1_1.averagePower           261.326252                       # Core power per rank (mW)
system.mem_ctrls1_1.totalIdleTime        1084437802405                       # Total Idle time Per DRAM Rank
system.mem_ctrls1_1.memoryStateTime::IDLE    618323372                       # Time in different power states
system.mem_ctrls1_1.memoryStateTime::REF   3033378000                       # Time in different power states
system.mem_ctrls1_1.memoryStateTime::SREF 1015958322649                       # Time in different power states
system.mem_ctrls1_1.memoryStateTime::PRE_PDN  24214181399                       # Time in different power states
system.mem_ctrls1_1.memoryStateTime::ACT   2528074692                       # Time in different power states
system.mem_ctrls1_1.memoryStateTime::ACT_PDN  44282094787                       # Time in different power states
system.pwrStateResidencyTicks::UNDEFINED 31102048535949                       # Cumulative time (in ticks) in various power states
system.cpu.branchPred.lookups                       6                       # Number of BP lookups
system.cpu.branchPred.condPredicted                 3                       # Number of conditional branches predicted
system.cpu.branchPred.condIncorrect                 3                       # Number of conditional branches incorrect
system.cpu.branchPred.BTBLookups                    3                       # Number of BTB lookups
system.cpu.branchPred.BTBHits                       0                       # Number of BTB hits
system.cpu.branchPred.BTBCorrect                    0                       # Number of correct BTB predictions (this stat may not work properly.
system.cpu.branchPred.BTBHitPct              0.000000                       # BTB Hit Percentage
system.cpu.branchPred.usedRAS                       0                       # Number of times the RAS was used to get a target.
system.cpu.branchPred.RASInCorrect                  0                       # Number of incorrect RAS predictions.
system.cpu.branchPred.indirectLookups               1                       # Number of indirect predictor lookups.
system.cpu.branchPred.indirectHits                  0                       # Number of indirect target hits.
system.cpu.branchPred.indirectMisses                1                       # Number of indirect misses.
system.cpu.branchPredindirectMispredicted            1                       # Number of mispredicted indirect branches.
system.cpu_voltage_domain.voltage                   1                       # Voltage in Volts
system.cpu_clk_domain.clock                       333                       # Clock period in ticks
system.cpu.dtb.fetch_hits                           0                       # ITB hits
system.cpu.dtb.fetch_misses                         0                       # ITB misses
system.cpu.dtb.fetch_acv                            0                       # ITB acv
system.cpu.dtb.fetch_accesses                       0                       # ITB accesses
system.cpu.dtb.read_hits                            5                       # DTB read hits
system.cpu.dtb.read_misses                          0                       # DTB read misses
system.cpu.dtb.read_acv                             0                       # DTB read access violations
system.cpu.dtb.read_accesses                        5                       # DTB read accesses
system.cpu.dtb.write_hits                           0                       # DTB write hits
system.cpu.dtb.write_misses                         0                       # DTB write misses
system.cpu.dtb.write_acv                            0                       # DTB write access violations
system.cpu.dtb.write_accesses                       0                       # DTB write accesses
system.cpu.dtb.data_hits                            5                       # DTB hits
system.cpu.dtb.data_misses                          0                       # DTB misses
system.cpu.dtb.data_acv                             0                       # DTB access violations
system.cpu.dtb.data_accesses                        5                       # DTB accesses
system.cpu.itb.fetch_hits                           7                       # ITB hits
system.cpu.itb.fetch_misses                         0                       # ITB misses
system.cpu.itb.fetch_acv                            0                       # ITB acv
system.cpu.itb.fetch_accesses                       7                       # ITB accesses
system.cpu.itb.read_hits                            0                       # DTB read hits
system.cpu.itb.read_misses                          0                       # DTB read misses
system.cpu.itb.read_acv                             0                       # DTB read access violations
system.cpu.itb.read_accesses                        0                       # DTB read accesses
system.cpu.itb.write_hits                           0                       # DTB write hits
system.cpu.itb.write_misses                         0                       # DTB write misses
system.cpu.itb.write_acv                            0                       # DTB write access violations
system.cpu.itb.write_accesses                       0                       # DTB write accesses
system.cpu.itb.data_hits                            0                       # DTB hits
system.cpu.itb.data_misses                          0                       # DTB misses
system.cpu.itb.data_acv                             0                       # DTB access violations
system.cpu.itb.data_accesses                        0                       # DTB accesses
system.cpu.workload.num_syscalls                    9                       # Number of system calls
system.cpu.pwrStateResidencyTicks::ON    1090634374899                       # Cumulative time (in ticks) in various power states
system.cpu.numCycles                             1010                       # number of cpu cycles simulated
system.cpu.numWorkItemsStarted                      0                       # number of work items this cpu started
system.cpu.numWorkItemsCompleted                    0                       # number of work items this cpu completed
system.cpu.fetch.icacheStallCycles                 50                       # Number of cycles fetch is stalled on an Icache miss
system.cpu.fetch.Insts                             34                       # Number of instructions fetch has processed
system.cpu.fetch.Branches                           6                       # Number of branches that fetch encountered
system.cpu.fetch.Cycles                             5                       # Number of cycles fetch has run and was not squashing or blocked
system.cpu.fetch.SquashCycles                       9                       # Number of cycles fetch has spent squashing
system.cpu.fetch.PendingDrainCycles                 6                       # Number of cycles fetch has spent waiting on pipes to drain
system.cpu.fetch.CacheLines                         7                       # Number of cache lines fetched
system.cpu.fetch.IcacheSquashes                     4                       # Number of outstanding Icache misses that were squashed
system.cpu.fetch.rateDist::samples                 65                       # Number of instructions fetched each cycle (Total)
system.cpu.fetch.rateDist::mean              0.523077                       # Number of instructions fetched each cycle (Total)
system.cpu.fetch.rateDist::stdev             1.880057                       # Number of instructions fetched each cycle (Total)
system.cpu.fetch.rateDist::underflows               0      0.00%      0.00% # Number of instructions fetched each cycle (Total)
system.cpu.fetch.rateDist::0                       60     92.31%     92.31% # Number of instructions fetched each cycle (Total)
system.cpu.fetch.rateDist::1                        0      0.00%     92.31% # Number of instructions fetched each cycle (Total)
system.cpu.fetch.rateDist::2                        0      0.00%     92.31% # Number of instructions fetched each cycle (Total)
system.cpu.fetch.rateDist::3                        0      0.00%     92.31% # Number of instructions fetched each cycle (Total)
system.cpu.fetch.rateDist::4                        1      1.54%     93.85% # Number of instructions fetched each cycle (Total)
system.cpu.fetch.rateDist::5                        0      0.00%     93.85% # Number of instructions fetched each cycle (Total)
system.cpu.fetch.rateDist::6                        1      1.54%     95.38% # Number of instructions fetched each cycle (Total)
system.cpu.fetch.rateDist::7                        0      0.00%     95.38% # Number of instructions fetched each cycle (Total)
system.cpu.fetch.rateDist::8                        3      4.62%    100.00% # Number of instructions fetched each cycle (Total)
system.cpu.fetch.rateDist::overflows                0      0.00%    100.00% # Number of instructions fetched each cycle (Total)
system.cpu.fetch.rateDist::min_value                0                       # Number of instructions fetched each cycle (Total)
system.cpu.fetch.rateDist::max_value                8                       # Number of instructions fetched each cycle (Total)
system.cpu.fetch.rateDist::total                   65                       # Number of instructions fetched each cycle (Total)
system.cpu.fetch.branchRate                  0.005941                       # Number of branch fetches per cycle
system.cpu.fetch.rate                        0.033663                       # Number of inst fetches per cycle
[...]
system.switch_cpus_1.iq.int_inst_queue_wakeup_accesses    235778631                       # Number of integer instruction queue wakeup accesses
system.switch_cpus_1.iq.fp_inst_queue_reads       479381                       # Number of floating instruction queue reads
system.switch_cpus_1.iq.fp_inst_queue_writes       346377                       # Number of floating instruction queue writes
system.switch_cpus_1.iq.fp_inst_queue_wakeup_accesses       212256                       # Number of floating instruction queue wakeup accesses
system.switch_cpus_1.iq.int_alu_accesses    249261044                       # Number of integer alu accesses
system.switch_cpus_1.iq.fp_alu_accesses        245980                       # Number of floating point alu accesses
system.switch_cpus_1.iew.lsq.thread0.forwLoads      8572908                       # Number of loads that had data forwarded from stores
system.switch_cpus_1.iew.lsq.thread0.invAddrLoads            0                       # Number of loads ignored due to an invalid address
system.switch_cpus_1.iew.lsq.thread0.squashedLoads     24835458                       # Number of loads squashed
system.switch_cpus_1.iew.lsq.thread0.ignoredResponses        41434                       # Number of memory responses ignored because the instruction is squashed
system.switch_cpus_1.iew.lsq.thread0.memOrderViolation        82199                       # Number of memory ordering violations
system.switch_cpus_1.iew.lsq.thread0.squashedStores     10647146                       # Number of stores squashed
system.switch_cpus_1.iew.lsq.thread0.invAddrSwpfs            0                       # Number of software prefetches ignored due to an invalid address
system.switch_cpus_1.iew.lsq.thread0.blockedLoads            0                       # Number of blocked loads due to partial load-store forwarding
system.switch_cpus_1.iew.lsq.thread0.rescheduledLoads           46                       # Number of loads that were rescheduled
system.switch_cpus_1.iew.lsq.thread0.cacheBlocked       157757                       # Number of times an access to memory failed due to the cache being blocked
system.switch_cpus_1.iew.iewIdleCycles              0                       # Number of cycles IEW is idle
system.switch_cpus_1.iew.iewSquashCycles      2085209                       # Number of cycles IEW is squashing
system.switch_cpus_1.iew.iewBlockCycles      20803619                       # Number of cycles IEW is blocking
system.switch_cpus_1.iew.iewUnblockCycles     15679144                       # Number of cycles IEW is unblocking
system.switch_cpus_1.iew.iewDispatchedInsts    281139671                       # Number of instructions dispatched to IQ
system.switch_cpus_1.iew.iewDispSquashedInsts       638841                       # Number of squashed instructions skipped by dispatch
system.switch_cpus_1.iew.iewDispLoadInsts     89942986                       # Number of dispatched load instructions
system.switch_cpus_1.iew.iewDispStoreInsts     38819107                       # Number of dispatched store instructions
system.switch_cpus_1.iew.iewDispNonSpecInsts        84794                       # Number of dispatched non-speculative instructions
system.switch_cpus_1.iew.iewIQFullEvents       351546                       # Number of times the IQ has become full, causing a stall
system.switch_cpus_1.iew.iewLSQFullEvents     15347523                       # Number of times the LSQ has become full, causing a stall
system.switch_cpus_1.iew.memOrderViolationEvents        82199                       # Number of memory order violations
system.switch_cpus_1.iew.predictedTakenIncorrect       940127                       # Number of branches that were predicted taken incorrectly
system.switch_cpus_1.iew.predictedNotTakenIncorrect       734631                       # Number of branches that were predicted not taken incorrectly
system.switch_cpus_1.iew.branchMispredicts      1674758                       # Number of branch mispredicts detected at execute
system.switch_cpus_1.iew.iewExecutedInsts    239355710                       # Number of executed instructions
system.switch_cpus_1.iew.iewExecLoadInsts     78353769                       # Number of load instructions executed
system.switch_cpus_1.iew.iewExecSquashedInsts      2921311                       # Number of squashed instructions skipped in execute
system.switch_cpus_1.iew.exec_swp                   0                       # number of swp insts executed
system.switch_cpus_1.iew.exec_nop             6951838                       # number of nop insts executed
system.switch_cpus_1.iew.exec_refs          112539012                       # number of memory reference insts executed
system.switch_cpus_1.iew.exec_branches       39873576                       # Number of branches executed
system.switch_cpus_1.iew.exec_stores         34185243                       # Number of stores executed
system.switch_cpus_1.iew.exec_rate           1.082785                       # Inst execution rate
system.switch_cpus_1.iew.wb_sent            237909616                       # cumulative count of insts sent to commit
system.switch_cpus_1.iew.wb_count           235990887                       # cumulative count of insts written-back
system.switch_cpus_1.iew.wb_producers       131571491                       # num instructions producing a value
system.switch_cpus_1.iew.wb_consumers       175175852                       # num instructions consuming a value
system.switch_cpus_1.iew.wb_rate             1.067563                       # insts written-back per cycle
system.switch_cpus_1.iew.wb_fanout           0.751082                       # average fanout of values written-back
system.switch_cpus_1.commit.commitSquashedInsts     68345838                       # The number of squashed insts skipped by commit
system.switch_cpus_1.commit.commitNonSpecStalls       131982                       # The number of times commit has been forced to stall to communicate backwards
system.switch_cpus_1.commit.branchMispredicts      1465194                       # The number of times a branch was mispredicted
system.switch_cpus_1.commit.committed_per_cycle::samples    188866719                       # Number of insts commited each cycle
system.switch_cpus_1.commit.committed_per_cycle::mean     1.084204                       # Number of insts commited each cycle
system.switch_cpus_1.commit.committed_per_cycle::stdev     2.192285                       # Number of insts commited each cycle
system.switch_cpus_1.commit.committed_per_cycle::underflows            0      0.00%      0.00% # Number of insts commited each cycle
system.switch_cpus_1.commit.committed_per_cycle::0    127488538     67.50%     67.50% # Number of insts commited each cycle
system.switch_cpus_1.commit.committed_per_cycle::1     25469947     13.49%     80.99% # Number of insts commited each cycle
system.switch_cpus_1.commit.committed_per_cycle::2      9027741      4.78%     85.77% # Number of insts commited each cycle
system.switch_cpus_1.commit.committed_per_cycle::3      4140466      2.19%     87.96% # Number of insts commited each cycle
system.switch_cpus_1.commit.committed_per_cycle::4      3877891      2.05%     90.01% # Number of insts commited each cycle
system.switch_cpus_1.commit.committed_per_cycle::5      3300149      1.75%     91.76% # Number of insts commited each cycle
system.switch_cpus_1.commit.committed_per_cycle::6      2819888      1.49%     93.25% # Number of insts commited each cycle
system.switch_cpus_1.commit.committed_per_cycle::7      2045211      1.08%     94.34% # Number of insts commited each cycle
system.switch_cpus_1.commit.committed_per_cycle::8     10696888      5.66%    100.00% # Number of insts commited each cycle
system.switch_cpus_1.commit.committed_per_cycle::overflows            0      0.00%    100.00% # Number of insts commited each cycle
system.switch_cpus_1.commit.committed_per_cycle::min_value            0                       # Number of insts commited each cycle
system.switch_cpus_1.commit.committed_per_cycle::max_value            8                       # Number of insts commited each cycle
system.switch_cpus_1.commit.committed_per_cycle::total    188866719                       # Number of insts commited each cycle
system.switch_cpus_1.commit.committedInsts    204770045                       # Number of instructions committed
system.switch_cpus_1.commit.committedOps    204770045                       # Number of ops (including micro ops) committed
system.switch_cpus_1.commit.swp_count               0                       # Number of s/w prefetches committed
system.switch_cpus_1.commit.refs             93279484                       # Number of memory references committed
system.switch_cpus_1.commit.loads            65107527                       # Number of loads committed
system.switch_cpus_1.commit.membars             65988                       # Number of memory barriers committed
system.switch_cpus_1.commit.branches         33714070                       # Number of branches committed
system.switch_cpus_1.commit.fp_insts           159557                       # Number of committed floating point instructions.
system.switch_cpus_1.commit.int_insts       196778837                       # Number of committed integer instructions.
system.switch_cpus_1.commit.function_calls      2336737                       # Number of function calls committed.
system.switch_cpus_1.commit.op_class_0::No_OpClass      4770592      2.33%      2.33% # Class of committed instruction
system.switch_cpus_1.commit.op_class_0::IntAlu    106615487     52.07%     54.40% # Class of committed instruction
system.switch_cpus_1.commit.op_class_0::IntMult         2354      0.00%     54.40% # Class of committed instruction
system.switch_cpus_1.commit.op_class_0::IntDiv            0      0.00%     54.40% # Class of committed instruction
system.switch_cpus_1.commit.op_class_0::FloatAdd        29677      0.01%     54.41% # Class of committed instruction
system.switch_cpus_1.commit.op_class_0::FloatCmp         2802      0.00%     54.41% # Class of committed instruction
system.switch_cpus_1.commit.op_class_0::FloatCvt         2757      0.00%     54.41% # Class of committed instruction
system.switch_cpus_1.commit.op_class_0::FloatMult          480      0.00%     54.41% # Class of committed instruction
system.switch_cpus_1.commit.op_class_0::FloatMultAcc            0      0.00%     54.41% # Class of committed instruction
system.switch_cpus_1.commit.op_class_0::FloatDiv          424      0.00%     54.41% # Class of committed instruction
system.switch_cpus_1.commit.op_class_0::FloatMisc            0      0.00%     54.41% # Class of committed instruction
system.switch_cpus_1.commit.op_class_0::FloatSqrt            0      0.00%     54.41% # Class of committed instruction
system.switch_cpus_1.commit.op_class_0::SimdAdd            0      0.00%     54.41% # Class of committed instruction
system.switch_cpus_1.commit.op_class_0::SimdAddAcc            0      0.00%     54.41% # Class of committed instruction
system.switch_cpus_1.commit.op_class_0::SimdAlu            0      0.00%     54.41% # Class of committed instruction
system.switch_cpus_1.commit.op_class_0::SimdCmp            0      0.00%     54.41% # Class of committed instruction
system.switch_cpus_1.commit.op_class_0::SimdCvt            0      0.00%     54.41% # Class of committed instruction
system.switch_cpus_1.commit.op_class_0::SimdMisc            0      0.00%     54.41% # Class of committed instruction
system.switch_cpus_1.commit.op_class_0::SimdMult            0      0.00%     54.41% # Class of committed instruction
system.switch_cpus_1.commit.op_class_0::SimdMultAcc            0      0.00%     54.41% # Class of committed instruction
system.switch_cpus_1.commit.op_class_0::SimdShift            0      0.00%     54.41% # Class of committed instruction
system.switch_cpus_1.commit.op_class_0::SimdShiftAcc            0      0.00%     54.41% # Class of committed instruction
system.switch_cpus_1.commit.op_class_0::SimdSqrt            0      0.00%     54.41% # Class of committed instruction
system.switch_cpus_1.commit.op_class_0::SimdFloatAdd            0      0.00%     54.41% # Class of committed instruction
system.switch_cpus_1.commit.op_class_0::SimdFloatAlu            0      0.00%     54.41% # Class of committed instruction
system.switch_cpus_1.commit.op_class_0::SimdFloatCmp            0      0.00%     54.41% # Class of committed instruction
system.switch_cpus_1.commit.op_class_0::SimdFloatCvt            0      0.00%     54.41% # Class of committed instruction
system.switch_cpus_1.commit.op_class_0::SimdFloatDiv            0      0.00%     54.41% # Class of committed instruction
system.switch_cpus_1.commit.op_class_0::SimdFloatMisc            0      0.00%     54.41% # Class of committed instruction
system.switch_cpus_1.commit.op_class_0::SimdFloatMult            0      0.00%     54.41% # Class of committed instruction
system.switch_cpus_1.commit.op_class_0::SimdFloatMultAcc            0      0.00%     54.41% # Class of committed instruction
system.switch_cpus_1.commit.op_class_0::SimdFloatSqrt            0      0.00%     54.41% # Class of committed instruction
system.switch_cpus_1.commit.op_class_0::MemRead     65122112     31.80%     86.22% # Class of committed instruction
system.switch_cpus_1.commit.op_class_0::MemWrite     28099943     13.72%     99.94% # Class of committed instruction
system.switch_cpus_1.commit.op_class_0::FloatMemRead        51403      0.03%     99.96% # Class of committed instruction
system.switch_cpus_1.commit.op_class_0::FloatMemWrite        72014      0.04%    100.00% # Class of committed instruction
system.switch_cpus_1.commit.op_class_0::IprAccess            0      0.00%    100.00% # Class of committed instruction
system.switch_cpus_1.commit.op_class_0::InstPrefetch            0      0.00%    100.00% # Class of committed instruction
system.switch_cpus_1.commit.op_class_0::total    204770045                       # Class of committed instruction
system.switch_cpus_1.commit.bw_lim_events     10696888                       # number cycles where commit BW limit reached
system.switch_cpus_1.rob.rob_reads          444059885                       # The number of ROB reads
system.switch_cpus_1.rob.rob_writes         556262756                       # The number of ROB writes
system.switch_cpus_1.timesIdled               1318324                       # Number of times that the entire CPU went into an idle state and unscheduled itself
system.switch_cpus_1.idleCycles              22180647                       # Total number of cycles that the CPU has spent unscheduled due to idling
system.switch_cpus_1.committedInsts         200000002                       # Number of Instructions Simulated
system.switch_cpus_1.committedOps           200000002                       # Number of Ops (including micro ops) Simulated
system.switch_cpus_1.cpi                     1.105279                       # CPI: Cycles Per Instruction
system.switch_cpus_1.cpi_total               1.105279                       # CPI: Total CPI of All Threads
system.switch_cpus_1.ipc                     0.904749                       # IPC: Instructions Per Cycle
system.switch_cpus_1.ipc_total               0.904749                       # IPC: Total IPC of All Threads
system.switch_cpus_1.int_regfile_reads      304419827                       # number of integer regfile reads
system.switch_cpus_1.int_regfile_writes     165795605                       # number of integer regfile writes
system.switch_cpus_1.fp_regfile_reads          179957                       # number of floating regfile reads
system.switch_cpus_1.fp_regfile_writes         106155                       # number of floating regfile writes
system.switch_cpus_1.misc_regfile_reads        151464                       # number of misc regfile reads
system.switch_cpus_1.misc_regfile_writes       132243                       # number of misc regfile writes
system.tol3bus.snoop_filter.tot_requests      1294255                       # Total number of requests made to the snoop filter.
system.tol3bus.snoop_filter.hit_single_requests       645094                       # Number of requests hitting in the snoop filter with a single holder of the requested data.
system.tol3bus.snoop_filter.hit_multi_requests            0                       # Number of requests hitting in the snoop filter with multiple (>1) holders of the requested data.
system.tol3bus.snoop_filter.tot_snoops            648                       # Total number of snoops made to the snoop filter.
system.tol3bus.snoop_filter.hit_single_snoops          648                       # Number of snoops hitting in the snoop filter with a single holder of the requested data.
system.tol3bus.snoop_filter.hit_multi_snoops            0                       # Number of snoops hitting in the snoop filter with multiple (>1) holders of the requested data.
system.tol3bus.pwrStateResidencyTicks::UNDEFINED 31102048535949                       # Cumulative time (in ticks) in various power states
system.tol3bus.trans_dist::ReadResp            578221                       # Transaction distribution
system.tol3bus.trans_dist::WritebackDirty       197412                       # Transaction distribution
system.tol3bus.trans_dist::CleanEvict          551468                       # Transaction distribution
system.tol3bus.trans_dist::UpgradeReq               2                       # Transaction distribution
system.tol3bus.trans_dist::UpgradeResp              2                       # Transaction distribution
system.tol3bus.trans_dist::ReadExReq            70940                       # Transaction distribution
system.tol3bus.trans_dist::ReadExResp           70940                       # Transaction distribution
system.tol3bus.trans_dist::ReadSharedReq       578221                       # Transaction distribution
system.tol3bus.pkt_count_system.cpu.l2.mem_side::system.l3.cpu_side      1943418                       # Packet count per connected master and slave (bytes)
system.tol3bus.pkt_size_system.cpu.l2.mem_side::system.l3.cpu_side     52751168                       # Cumulative packet size per connected master and slave (bytes)
system.tol3bus.snoops                          103788                       # Total snoops (count)
system.tol3bus.snoopTraffic                   1429504                       # Total snoop traffic (bytes)
system.tol3bus.snoop_fanout::samples           752951                       # Request fanout histogram
system.tol3bus.snoop_fanout::mean            0.000861                       # Request fanout histogram
system.tol3bus.snoop_fanout::stdev           0.029324                       # Request fanout histogram
system.tol3bus.snoop_fanout::underflows             0      0.00%      0.00% # Request fanout histogram
system.tol3bus.snoop_fanout::0                 752303     99.91%     99.91% # Request fanout histogram
system.tol3bus.snoop_fanout::1                    648      0.09%    100.00% # Request fanout histogram
system.tol3bus.snoop_fanout::overflows              0      0.00%    100.00% # Request fanout histogram
system.tol3bus.snoop_fanout::min_value              0                       # Request fanout histogram
system.tol3bus.snoop_fanout::max_value              1                       # Request fanout histogram
system.tol3bus.snoop_fanout::total             752951                       # Request fanout histogram
system.tol3bus.reqLayer0.occupancy          489287223                       # Layer occupancy (ticks)
system.tol3bus.reqLayer0.utilization              0.0                       # Layer utilization (%)
system.tol3bus.respLayer0.occupancy         432341892                       # Layer occupancy (ticks)
system.tol3bus.respLayer0.utilization             0.0                       # Layer utilization (%)

---------- End Simulation Statistics   ----------
