
---------- Begin Simulation Statistics ----------
sim_seconds                                  1.492144                       # Number of seconds simulated
sim_ticks                                1492143941088                       # Number of ticks simulated
final_tick                               34795521865449                       # Number of ticks from beginning of simulation (restored from checkpoints and never reset)
sim_freq                                 1000000000000                       # Frequency of simulated ticks
host_inst_rate                                 500387                       # Simulator instruction rate (inst/s)
host_op_rate                                   500387                       # Simulator op (including micro ops) rate (op/s)
host_tick_rate                              622208049                       # Simulator tick rate (ticks/s)
host_mem_usage                                2567284                       # Number of bytes of host memory used
host_seconds                                  2398.14                       # Real time elapsed on the host
sim_insts                                  1200000009                       # Number of instructions simulated
sim_ops                                    1200000009                       # Number of ops (including micro ops) simulated
system.voltage_domain.voltage                       1                       # Voltage in Volts
system.clk_domain.clock                          1000                       # Clock period in ticks
system.mem_ctrls0.pwrStateResidencyTicks::UNDEFINED 34795521865449                       # Cumulative time (in ticks) in various power states
system.mem_ctrls0.bytes_read::cpu.inst            128                       # Number of bytes read from this memory
system.mem_ctrls0.bytes_read::cpu.data            192                       # Number of bytes read from this memory
system.mem_ctrls0.bytes_read::switch_cpus.inst         8064                       # Number of bytes read from this memory
system.mem_ctrls0.bytes_read::switch_cpus.data     85773568                       # Number of bytes read from this memory
system.mem_ctrls0.bytes_read::switch_cpus_1.inst           64                       # Number of bytes read from this memory
system.mem_ctrls0.bytes_read::switch_cpus_1.data     17588544                       # Number of bytes read from this memory
system.mem_ctrls0.bytes_read::total         103370560                       # Number of bytes read from this memory
system.mem_ctrls0.bytes_inst_read::cpu.inst          128                       # Number of instructions bytes read from this memory
system.mem_ctrls0.bytes_inst_read::switch_cpus.inst         8064                       # Number of instructions bytes read from this memory
system.mem_ctrls0.bytes_inst_read::switch_cpus_1.inst           64                       # Number of instructions bytes read from this memory
system.mem_ctrls0.bytes_inst_read::total         8256                       # Number of instructions bytes read from this memory
system.mem_ctrls0.bytes_written::writebacks     34960640                       # Number of bytes written to this memory
system.mem_ctrls0.bytes_written::total       34960640                       # Number of bytes written to this memory
system.mem_ctrls0.num_reads::cpu.inst               2                       # Number of read requests responded to by this memory
system.mem_ctrls0.num_reads::cpu.data               3                       # Number of read requests responded to by this memory
system.mem_ctrls0.num_reads::switch_cpus.inst          126                       # Number of read requests responded to by this memory
system.mem_ctrls0.num_reads::switch_cpus.data      1340212                       # Number of read requests responded to by this memory
system.mem_ctrls0.num_reads::switch_cpus_1.inst            1                       # Number of read requests responded to by this memory
system.mem_ctrls0.num_reads::switch_cpus_1.data       274821                       # Number of read requests responded to by this memory
system.mem_ctrls0.num_reads::total            1615165                       # Number of read requests responded to by this memory
system.mem_ctrls0.num_writes::writebacks       546260                       # Number of write requests responded to by this memory
system.mem_ctrls0.num_writes::total            546260                       # Number of write requests responded to by this memory
system.mem_ctrls0.bw_read::cpu.inst                86                       # Total read bandwidth from this memory (bytes/s)
system.mem_ctrls0.bw_read::cpu.data               129                       # Total read bandwidth from this memory (bytes/s)
system.mem_ctrls0.bw_read::switch_cpus.inst         5404                       # Total read bandwidth from this memory (bytes/s)
system.mem_ctrls0.bw_read::switch_cpus.data     57483441                       # Total read bandwidth from this memory (bytes/s)
system.mem_ctrls0.bw_read::switch_cpus_1.inst           43                       # Total read bandwidth from this memory (bytes/s)
system.mem_ctrls0.bw_read::switch_cpus_1.data     11787431                       # Total read bandwidth from this memory (bytes/s)
system.mem_ctrls0.bw_read::total             69276534                       # Total read bandwidth from this memory (bytes/s)
system.mem_ctrls0.bw_inst_read::cpu.inst           86                       # Instruction read bandwidth from this memory (bytes/s)
system.mem_ctrls0.bw_inst_read::switch_cpus.inst         5404                       # Instruction read bandwidth from this memory (bytes/s)
system.mem_ctrls0.bw_inst_read::switch_cpus_1.inst           43                       # Instruction read bandwidth from this memory (bytes/s)
system.mem_ctrls0.bw_inst_read::total            5533                       # Instruction read bandwidth from this memory (bytes/s)
system.mem_ctrls0.bw_write::writebacks       23429804                       # Write bandwidth from this memory (bytes/s)
system.mem_ctrls0.bw_write::total            23429804                       # Write bandwidth from this memory (bytes/s)
system.mem_ctrls0.bw_total::writebacks       23429804                       # Total bandwidth to/from this memory (bytes/s)
system.mem_ctrls0.bw_total::cpu.inst               86                       # Total bandwidth to/from this memory (bytes/s)
system.mem_ctrls0.bw_total::cpu.data              129                       # Total bandwidth to/from this memory (bytes/s)
system.mem_ctrls0.bw_total::switch_cpus.inst         5404                       # Total bandwidth to/from this memory (bytes/s)
system.mem_ctrls0.bw_total::switch_cpus.data     57483441                       # Total bandwidth to/from this memory (bytes/s)
system.mem_ctrls0.bw_total::switch_cpus_1.inst           43                       # Total bandwidth to/from this memory (bytes/s)
system.mem_ctrls0.bw_total::switch_cpus_1.data     11787431                       # Total bandwidth to/from this memory (bytes/s)
system.mem_ctrls0.bw_total::total            92706338                       # Total bandwidth to/from this memory (bytes/s)
system.mem_ctrls0.readReqs                    1615165                       # Number of read requests accepted
system.mem_ctrls0.writeReqs                    546260                       # Number of write requests accepted
system.mem_ctrls0.readBursts                  1615165                       # Number of DRAM read bursts, including those serviced by the write queue
system.mem_ctrls0.writeBursts                  546260                       # Number of DRAM write bursts, including those merged in the write queue
system.mem_ctrls0.bytesReadDRAM             103354560                       # Total number of bytes read from DRAM
system.mem_ctrls0.bytesReadWrQ                  16000                       # Total number of bytes read from write queue
system.mem_ctrls0.bytesWritten               34959680                       # Total number of bytes written to DRAM
system.mem_ctrls0.bytesReadSys              103370560                       # Total read bytes from the system interface side
system.mem_ctrls0.bytesWrittenSys            34960640                       # Total written bytes from the system interface side
system.mem_ctrls0.servicedByWrQ                   250                       # Number of DRAM read bursts serviced by the write queue
system.mem_ctrls0.mergedWrBursts                    0                       # Number of DRAM write bursts merged with an existing one
system.mem_ctrls0.neitherReadNorWriteReqs            0                       # Number of requests that are neither read nor write
system.mem_ctrls0.perBankRdBursts::0           105069                       # Per bank write bursts
system.mem_ctrls0.perBankRdBursts::1           102799                       # Per bank write bursts
system.mem_ctrls0.perBankRdBursts::2           103291                       # Per bank write bursts
system.mem_ctrls0.perBankRdBursts::3           100692                       # Per bank write bursts
system.mem_ctrls0.perBankRdBursts::4           101829                       # Per bank write bursts
system.mem_ctrls0.perBankRdBursts::5           101344                       # Per bank write bursts
system.mem_ctrls0.perBankRdBursts::6           100638                       # Per bank write bursts
system.mem_ctrls0.perBankRdBursts::7           101186                       # Per bank write bursts
system.mem_ctrls0.perBankRdBursts::8           100186                       # Per bank write bursts
system.mem_ctrls0.perBankRdBursts::9            98898                       # Per bank write bursts
system.mem_ctrls0.perBankRdBursts::10           99216                       # Per bank write bursts
system.mem_ctrls0.perBankRdBursts::11           99342                       # Per bank write bursts
system.mem_ctrls0.perBankRdBursts::12           98529                       # Per bank write bursts
system.mem_ctrls0.perBankRdBursts::13           98416                       # Per bank write bursts
system.mem_ctrls0.perBankRdBursts::14          100412                       # Per bank write bursts
system.mem_ctrls0.perBankRdBursts::15          103068                       # Per bank write bursts
system.mem_ctrls0.perBankWrBursts::0            36374                       # Per bank write bursts
system.mem_ctrls0.perBankWrBursts::1            35301                       # Per bank write bursts
system.mem_ctrls0.perBankWrBursts::2            34701                       # Per bank write bursts
system.mem_ctrls0.perBankWrBursts::3            33713                       # Per bank write bursts
system.mem_ctrls0.perBankWrBursts::4            33650                       # Per bank write bursts
system.mem_ctrls0.perBankWrBursts::5            33565                       # Per bank write bursts
system.mem_ctrls0.perBankWrBursts::6            33548                       # Per bank write bursts
system.mem_ctrls0.perBankWrBursts::7            33903                       # Per bank write bursts
system.mem_ctrls0.perBankWrBursts::8            33536                       # Per bank write bursts
system.mem_ctrls0.perBankWrBursts::9            33328                       # Per bank write bursts
system.mem_ctrls0.perBankWrBursts::10           33816                       # Per bank write bursts
system.mem_ctrls0.perBankWrBursts::11           33674                       # Per bank write bursts
system.mem_ctrls0.perBankWrBursts::12           33525                       # Per bank write bursts
system.mem_ctrls0.perBankWrBursts::13           33655                       # Per bank write bursts
system.mem_ctrls0.perBankWrBursts::14           34439                       # Per bank write bursts
system.mem_ctrls0.perBankWrBursts::15           35517                       # Per bank write bursts
system.mem_ctrls0.numRdRetry                        0                       # Number of times read queue was full causing retry
system.mem_ctrls0.numWrRetry                        0                       # Number of times write queue was full causing retry
system.mem_ctrls0.totGap                 1492143595767                       # Total gap between requests
system.mem_ctrls0.readPktSize::0                    0                       # Read request sizes (log2)
system.mem_ctrls0.readPktSize::1                    0                       # Read request sizes (log2)
system.mem_ctrls0.readPktSize::2                    0                       # Read request sizes (log2)
system.mem_ctrls0.readPktSize::3                    0                       # Read request sizes (log2)
system.mem_ctrls0.readPktSize::4                    0                       # Read request sizes (log2)
system.mem_ctrls0.readPktSize::5                    0                       # Read request sizes (log2)
system.mem_ctrls0.readPktSize::6              1615165                       # Read request sizes (log2)
system.mem_ctrls0.writePktSize::0                   0                       # Write request sizes (log2)
system.mem_ctrls0.writePktSize::1                   0                       # Write request sizes (log2)
system.mem_ctrls0.writePktSize::2                   0                       # Write request sizes (log2)
system.mem_ctrls0.writePktSize::3                   0                       # Write request sizes (log2)
system.mem_ctrls0.writePktSize::4                   0                       # Write request sizes (log2)
system.mem_ctrls0.writePktSize::5                   0                       # Write request sizes (log2)
system.mem_ctrls0.writePktSize::6              546260                       # Write request sizes (log2)
system.mem_ctrls0.rdQLenPdf::0                1509094                       # What read queue length does an incoming req see
system.mem_ctrls0.rdQLenPdf::1                  92578                       # What read queue length does an incoming req see
system.mem_ctrls0.rdQLenPdf::2                  12086                       # What read queue length does an incoming req see
system.mem_ctrls0.rdQLenPdf::3                   1157                       # What read queue length does an incoming req see
system.mem_ctrls0.rdQLenPdf::4                      0                       # What read queue length does an incoming req see
system.mem_ctrls0.rdQLenPdf::5                      0                       # What read queue length does an incoming req see
system.mem_ctrls0.rdQLenPdf::6                      0                       # What read queue length does an incoming req see
system.mem_ctrls0.rdQLenPdf::7                      0                       # What read queue length does an incoming req see
system.mem_ctrls0.rdQLenPdf::8                      0                       # What read queue length does an incoming req see
system.mem_ctrls0.rdQLenPdf::9                      0                       # What read queue length does an incoming req see
system.mem_ctrls0.rdQLenPdf::10                     0                       # What read queue length does an incoming req see
system.mem_ctrls0.rdQLenPdf::11                     0                       # What read queue length does an incoming req see
system.mem_ctrls0.rdQLenPdf::12                     0                       # What read queue length does an incoming req see
system.mem_ctrls0.rdQLenPdf::13                     0                       # What read queue length does an incoming req see
system.mem_ctrls0.rdQLenPdf::14                     0                       # What read queue length does an incoming req see
system.mem_ctrls0.rdQLenPdf::15                     0                       # What read queue length does an incoming req see
system.mem_ctrls0.rdQLenPdf::16                     0                       # What read queue length does an incoming req see
system.mem_ctrls0.rdQLenPdf::17                     0                       # What read queue length does an incoming req see
system.mem_ctrls0.rdQLenPdf::18                     0                       # What read queue length does an incoming req see
system.mem_ctrls0.rdQLenPdf::19                     0                       # What read queue length does an incoming req see
system.mem_ctrls0.rdQLenPdf::20                     0                       # What read queue length does an incoming req see
system.mem_ctrls0.rdQLenPdf::21                     0                       # What read queue length does an incoming req see
system.mem_ctrls0.rdQLenPdf::22                     0                       # What read queue length does an incoming req see
system.mem_ctrls0.rdQLenPdf::23                     0                       # What read queue length does an incoming req see
system.mem_ctrls0.rdQLenPdf::24                     0                       # What read queue length does an incoming req see
system.mem_ctrls0.rdQLenPdf::25                     0                       # What read queue length does an incoming req see
system.mem_ctrls0.rdQLenPdf::26                     0                       # What read queue length does an incoming req see
system.mem_ctrls0.rdQLenPdf::27                     0                       # What read queue length does an incoming req see
system.mem_ctrls0.rdQLenPdf::28                     0                       # What read queue length does an incoming req see
system.mem_ctrls0.rdQLenPdf::29                     0                       # What read queue length does an incoming req see
system.mem_ctrls0.rdQLenPdf::30                     0                       # What read queue length does an incoming req see
system.mem_ctrls0.rdQLenPdf::31                     0                       # What read queue length does an incoming req see
system.mem_ctrls0.wrQLenPdf::0                      2                       # What write queue length does an incoming req see
system.mem_ctrls0.wrQLenPdf::1                      2                       # What write queue length does an incoming req see
system.mem_ctrls0.wrQLenPdf::2                      2                       # What write queue length does an incoming req see
system.mem_ctrls0.wrQLenPdf::3                      2                       # What write queue length does an incoming req see
system.mem_ctrls0.wrQLenPdf::4                      2                       # What write queue length does an incoming req see
system.mem_ctrls0.wrQLenPdf::5                      2                       # What write queue length does an incoming req see
system.mem_ctrls0.wrQLenPdf::6                      2                       # What write queue length does an incoming req see
system.mem_ctrls0.wrQLenPdf::7                      2                       # What write queue length does an incoming req see
system.mem_ctrls0.wrQLenPdf::8                      2                       # What write queue length does an incoming req see
system.mem_ctrls0.wrQLenPdf::9                      2                       # What write queue length does an incoming req see
system.mem_ctrls0.wrQLenPdf::10                     2                       # What write queue length does an incoming req see
system.mem_ctrls0.wrQLenPdf::11                     2                       # What write queue length does an incoming req see
system.mem_ctrls0.wrQLenPdf::12                     2                       # What write queue length does an incoming req see
system.mem_ctrls0.wrQLenPdf::13                     2                       # What write queue length does an incoming req see
system.mem_ctrls0.wrQLenPdf::14                     2                       # What write queue length does an incoming req see
system.mem_ctrls0.wrQLenPdf::15                 17259                       # What write queue length does an incoming req see
system.mem_ctrls0.wrQLenPdf::16                 17955                       # What write queue length does an incoming req see
system.mem_ctrls0.wrQLenPdf::17                 30314                       # What write queue length does an incoming req see
system.mem_ctrls0.wrQLenPdf::18                 31772                       # What write queue length does an incoming req see
system.mem_ctrls0.wrQLenPdf::19                 32019                       # What write queue length does an incoming req see
system.mem_ctrls0.wrQLenPdf::20                 32053                       # What write queue length does an incoming req see
system.mem_ctrls0.wrQLenPdf::21                 32022                       # What write queue length does an incoming req see
system.mem_ctrls0.wrQLenPdf::22                 32040                       # What write queue length does an incoming req see
system.mem_ctrls0.wrQLenPdf::23                 32045                       # What write queue length does an incoming req see
system.mem_ctrls0.wrQLenPdf::24                 32054                       # What write queue length does an incoming req see
system.mem_ctrls0.wrQLenPdf::25                 32035                       # What write queue length does an incoming req see
system.mem_ctrls0.wrQLenPdf::26                 32011                       # What write queue length does an incoming req see
system.mem_ctrls0.wrQLenPdf::27                 32082                       # What write queue length does an incoming req see
system.mem_ctrls0.wrQLenPdf::28                 32367                       # What write queue length does an incoming req see
system.mem_ctrls0.wrQLenPdf::29                 32347                       # What write queue length does an incoming req see
system.mem_ctrls0.wrQLenPdf::30                 32045                       # What write queue length does an incoming req see
system.mem_ctrls0.wrQLenPdf::31                 31872                       # What write queue length does an incoming req see
system.mem_ctrls0.wrQLenPdf::32                 31855                       # What write queue length does an incoming req see
system.mem_ctrls0.wrQLenPdf::33                    78                       # What write queue length does an incoming req see
system.mem_ctrls0.wrQLenPdf::34                     5                       # What write queue length does an incoming req see
system.mem_ctrls0.wrQLenPdf::35                     0                       # What write queue length does an incoming req see
system.mem_ctrls0.wrQLenPdf::36                     0                       # What write queue length does an incoming req see
system.mem_ctrls0.wrQLenPdf::37                     0                       # What write queue length does an incoming req see
system.mem_ctrls0.wrQLenPdf::38                     0                       # What write queue length does an incoming req see
system.mem_ctrls0.wrQLenPdf::39                     0                       # What write queue length does an incoming req see
system.mem_ctrls0.wrQLenPdf::40                     0                       # What write queue length does an incoming req see
system.mem_ctrls0.wrQLenPdf::41                     0                       # What write queue length does an incoming req see
system.mem_ctrls0.wrQLenPdf::42                     0                       # What write queue length does an incoming req see
system.mem_ctrls0.wrQLenPdf::43                     0                       # What write queue length does an incoming req see
system.mem_ctrls0.wrQLenPdf::44                     0                       # What write queue length does an incoming req see
system.mem_ctrls0.wrQLenPdf::45                     0                       # What write queue length does an incoming req see
system.mem_ctrls0.wrQLenPdf::46                     0                       # What write queue length does an incoming req see
system.mem_ctrls0.wrQLenPdf::47                     0                       # What write queue length does an incoming req see
system.mem_ctrls0.wrQLenPdf::48                     0                       # What write queue length does an incoming req see
system.mem_ctrls0.wrQLenPdf::49                     0                       # What write queue length does an incoming req see
system.mem_ctrls0.wrQLenPdf::50                     0                       # What write queue length does an incoming req see
system.mem_ctrls0.wrQLenPdf::51                     0                       # What write queue length does an incoming req see
system.mem_ctrls0.wrQLenPdf::52                     0                       # What write queue length does an incoming req see
system.mem_ctrls0.wrQLenPdf::53                     0                       # What write queue length does an incoming req see
system.mem_ctrls0.wrQLenPdf::54                     0                       # What write queue length does an incoming req see
system.mem_ctrls0.wrQLenPdf::55                     0                       # What write queue length does an incoming req see
system.mem_ctrls0.wrQLenPdf::56                     0                       # What write queue length does an incoming req see
system.mem_ctrls0.wrQLenPdf::57                     0                       # What write queue length does an incoming req see
system.mem_ctrls0.wrQLenPdf::58                     0                       # What write queue length does an incoming req see
system.mem_ctrls0.wrQLenPdf::59                     0                       # What write queue length does an incoming req see
system.mem_ctrls0.wrQLenPdf::60                     0                       # What write queue length does an incoming req see
system.mem_ctrls0.wrQLenPdf::61                     0                       # What write queue length does an incoming req see
system.mem_ctrls0.wrQLenPdf::62                     0                       # What write queue length does an incoming req see
system.mem_ctrls0.wrQLenPdf::63                     0                       # What write queue length does an incoming req see
system.mem_ctrls0.bytesPerActivate::samples      1956109                       # Bytes accessed per row activation
system.mem_ctrls0.bytesPerActivate::mean    70.708501                       # Bytes accessed per row activation
system.mem_ctrls0.bytesPerActivate::gmean    67.823489                       # Bytes accessed per row activation
system.mem_ctrls0.bytesPerActivate::stdev    31.418641                       # Bytes accessed per row activation
system.mem_ctrls0.bytesPerActivate::0-127      1830893     93.60%     93.60% # Bytes accessed per row activation
system.mem_ctrls0.bytesPerActivate::128-255       104976      5.37%     98.97% # Bytes accessed per row activation
system.mem_ctrls0.bytesPerActivate::256-383        16472      0.84%     99.81% # Bytes accessed per row activation
system.mem_ctrls0.bytesPerActivate::384-511         3005      0.15%     99.96% # Bytes accessed per row activation
system.mem_ctrls0.bytesPerActivate::512-639          604      0.03%     99.99% # Bytes accessed per row activation
system.mem_ctrls0.bytesPerActivate::640-767          129      0.01%    100.00% # Bytes accessed per row activation
system.mem_ctrls0.bytesPerActivate::768-895           22      0.00%    100.00% # Bytes accessed per row activation
system.mem_ctrls0.bytesPerActivate::896-1023            4      0.00%    100.00% # Bytes accessed per row activation
system.mem_ctrls0.bytesPerActivate::1024-1151            4      0.00%    100.00% # Bytes accessed per row activation
system.mem_ctrls0.bytesPerActivate::total      1956109                       # Bytes accessed per row activation
system.mem_ctrls0.rdPerTurnAround::samples        31839                       # Reads before turning the bus around for writes
system.mem_ctrls0.rdPerTurnAround::mean     50.721254                       # Reads before turning the bus around for writes
system.mem_ctrls0.rdPerTurnAround::gmean    47.868696                       # Reads before turning the bus around for writes
system.mem_ctrls0.rdPerTurnAround::stdev   115.249136                       # Reads before turning the bus around for writes
system.mem_ctrls0.rdPerTurnAround::0-1023        31835     99.99%     99.99% # Reads before turning the bus around for writes
system.mem_ctrls0.rdPerTurnAround::1024-2047            2      0.01%     99.99% # Reads before turning the bus around for writes
system.mem_ctrls0.rdPerTurnAround::2048-3071            1      0.00%    100.00% # Reads before turning the bus around for writes
system.mem_ctrls0.rdPerTurnAround::19456-20479            1      0.00%    100.00% # Reads before turning the bus around for writes
system.mem_ctrls0.rdPerTurnAround::total        31839                       # Reads before turning the bus around for writes
system.mem_ctrls0.wrPerTurnAround::samples        31839                       # Writes before turning the bus around for reads
system.mem_ctrls0.wrPerTurnAround::mean     17.156475                       # Writes before turning the bus around for reads
system.mem_ctrls0.wrPerTurnAround::gmean    17.124056                       # Writes before turning the bus around for reads
system.mem_ctrls0.wrPerTurnAround::stdev     1.054016                       # Writes before turning the bus around for reads
system.mem_ctrls0.wrPerTurnAround::16           13889     43.62%     43.62% # Writes before turning the bus around for reads
system.mem_ctrls0.wrPerTurnAround::17             591      1.86%     45.48% # Writes before turning the bus around for reads
system.mem_ctrls0.wrPerTurnAround::18           15957     50.12%     95.60% # Writes before turning the bus around for reads
system.mem_ctrls0.wrPerTurnAround::19            1310      4.11%     99.71% # Writes before turning the bus around for reads
system.mem_ctrls0.wrPerTurnAround::20              84      0.26%     99.97% # Writes before turning the bus around for reads
system.mem_ctrls0.wrPerTurnAround::21               7      0.02%    100.00% # Writes before turning the bus around for reads
system.mem_ctrls0.wrPerTurnAround::31               1      0.00%    100.00% # Writes before turning the bus around for reads
system.mem_ctrls0.wrPerTurnAround::total        31839                       # Writes before turning the bus around for reads
system.mem_ctrls0.totQLat                 86546620600                       # Total ticks spent queuing
system.mem_ctrls0.totMemAccLat           116826276850                       # Total ticks spent from burst creation until serviced by the DRAM
system.mem_ctrls0.totBusLat                8074575000                       # Total ticks spent in databus transfers
system.mem_ctrls0.avgQLat                    53592.06                       # Average queueing delay per DRAM burst
system.mem_ctrls0.avgBusLat                   5000.00                       # Average bus latency per DRAM burst
system.mem_ctrls0.avgMemAccLat               72342.06                       # Average memory access latency per DRAM burst
system.mem_ctrls0.avgRdBW                       69.27                       # Average DRAM read bandwidth in MiByte/s
system.mem_ctrls0.avgWrBW                       23.43                       # Average achieved write bandwidth in MiByte/s
system.mem_ctrls0.avgRdBWSys                    69.28                       # Average system read bandwidth in MiByte/s
system.mem_ctrls0.avgWrBWSys                    23.43                       # Average system write bandwidth in MiByte/s
system.mem_ctrls0.peakBW                     12800.00                       # Theoretical peak bandwidth in MiByte/s
system.mem_ctrls0.busUtil                        0.72                       # Data bus utilization in percentage
system.mem_ctrls0.busUtilRead                    0.54                       # Data bus utilization in percentage for reads
system.mem_ctrls0.busUtilWrite                   0.18                       # Data bus utilization in percentage for writes
system.mem_ctrls0.avgRdQLen                      1.01                       # Average read queue length when enqueuing
system.mem_ctrls0.avgWrQLen                     24.42                       # Average write queue length when enqueuing
system.mem_ctrls0.readRowHits                   32298                       # Number of row buffer hits during reads
system.mem_ctrls0.writeRowHits                 172743                       # Number of row buffer hits during writes
system.mem_ctrls0.readRowHitRate                 2.00                       # Row buffer hit rate for reads
system.mem_ctrls0.writeRowHitRate               31.62                       # Row buffer hit rate for writes
system.mem_ctrls0.avgGap                    690351.78                       # Average gap between requests
system.mem_ctrls0.pageHitRate                    9.49                       # Row buffer hit rate, read and write combined
system.mem_ctrls0_0.actEnergy              7054555620                       # Energy for activate commands per rank (pJ)
system.mem_ctrls0_0.preEnergy              3749566260                       # Energy for precharge commands per rank (pJ)
system.mem_ctrls0_0.readEnergy             5832294720                       # Energy for read commands per rank (pJ)
system.mem_ctrls0_0.writeEnergy            1434221100                       # Energy for write commands per rank (pJ)
system.mem_ctrls0_0.refreshEnergy        119670408000.000031                       # Energy for refresh commands per rank (pJ)
system.mem_ctrls0_0.actBackEnergy         63294857130                       # Energy for active background per rank (pJ)
system.mem_ctrls0_0.preBackEnergy          6160519680                       # Energy for precharge background per rank (pJ)
system.mem_ctrls0_0.actPowerDownEnergy   326751015150                       # Energy for active power-down per rank (pJ)
system.mem_ctrls0_0.prePowerDownEnergy   162884294880                       # Energy for precharge power-down per rank (pJ)
system.mem_ctrls0_0.selfRefreshEnergy     63973531335                       # Energy for self refresh per rank (pJ)
system.mem_ctrls0_0.totalEnergy          760850322225                       # Total energy per rank (pJ)
system.mem_ctrls0_0.averagePower           509.904101                       # Core power per rank (mW)
system.mem_ctrls0_0.totalIdleTime        1337198513415                       # Total Idle time Per DRAM Rank
system.mem_ctrls0_0.memoryStateTime::IDLE   8850515619                       # Time in different power states
system.mem_ctrls0_0.memoryStateTime::REF  50808564000                       # Time in different power states
system.mem_ctrls0_0.memoryStateTime::SREF 196459049836                       # Time in different power states
system.mem_ctrls0_0.memoryStateTime::PRE_PDN 424178224305                       # Time in different power states
system.mem_ctrls0_0.memoryStateTime::ACT  95286063968                       # Time in different power states
system.mem_ctrls0_0.memoryStateTime::ACT_PDN 716561523360                       # Time in different power states
system.mem_ctrls0_1.actEnergy              6912134040                       # Energy for activate commands per rank (pJ)
system.mem_ctrls0_1.preEnergy              3673867395                       # Energy for precharge commands per rank (pJ)
system.mem_ctrls0_1.readEnergy             5698198380                       # Energy for read commands per rank (pJ)
system.mem_ctrls0_1.writeEnergy            1417177800                       # Energy for write commands per rank (pJ)
system.mem_ctrls0_1.refreshEnergy        120677188320.000031                       # Energy for refresh commands per rank (pJ)
system.mem_ctrls0_1.actBackEnergy         62612392710                       # Energy for active background per rank (pJ)
system.mem_ctrls0_1.preBackEnergy          5911313760                       # Energy for precharge background per rank (pJ)
system.mem_ctrls0_1.actPowerDownEnergy   327511825500                       # Energy for active power-down per rank (pJ)
system.mem_ctrls0_1.prePowerDownEnergy   171209808000                       # Energy for precharge power-down per rank (pJ)
system.mem_ctrls0_1.selfRefreshEnergy     58244619030                       # Energy for self refresh per rank (pJ)
system.mem_ctrls0_1.totalEnergy          763926110355                       # Total energy per rank (pJ)
system.mem_ctrls0_1.averagePower           511.965415                       # Core power per rank (mW)
system.mem_ctrls0_1.totalIdleTime        1339314169578                       # Total Idle time Per DRAM Rank
system.mem_ctrls0_1.memoryStateTime::IDLE   8550187615                       # Time in different power states
system.mem_ctrls0_1.memoryStateTime::REF  51229248000                       # Time in different power states
system.mem_ctrls0_1.memoryStateTime::SREF 175227357857                       # Time in different power states
system.mem_ctrls0_1.memoryStateTime::PRE_PDN 445859168870                       # Time in different power states
system.mem_ctrls0_1.memoryStateTime::ACT  93050335895                       # Time in different power states
system.mem_ctrls0_1.memoryStateTime::ACT_PDN 718227642851                       # Time in different power states
system.mem_ctrls1.pwrStateResidencyTicks::UNDEFINED 34795521865449                       # Cumulative time (in ticks) in various power states
system.mem_ctrls1.bytes_read::cpu.inst             64                       # Number of bytes read from this memory
system.mem_ctrls1.bytes_read::cpu.data            192                       # Number of bytes read from this memory
system.mem_ctrls1.bytes_read::switch_cpus.inst         8128                       # Number of bytes read from this memory
system.mem_ctrls1.bytes_read::switch_cpus.data     85816192                       # Number of bytes read from this memory
system.mem_ctrls1.bytes_read::switch_cpus_1.data     17594688                       # Number of bytes read from this memory
system.mem_ctrls1.bytes_read::total         103419264                       # Number of bytes read from this memory
system.mem_ctrls1.bytes_inst_read::cpu.inst           64                       # Number of instructions bytes read from this memory
system.mem_ctrls1.bytes_inst_read::switch_cpus.inst         8128                       # Number of instructions bytes read from this memory
system.mem_ctrls1.bytes_inst_read::total         8192                       # Number of instructions bytes read from this memory
system.mem_ctrls1.bytes_written::writebacks     34956160                       # Number of bytes written to this memory
system.mem_ctrls1.bytes_written::total       34956160                       # Number of bytes written to this memory
system.mem_ctrls1.num_reads::cpu.inst               1                       # Number of read requests responded to by this memory
system.mem_ctrls1.num_reads::cpu.data               3                       # Number of read requests responded to by this memory
system.mem_ctrls1.num_reads::switch_cpus.inst          127                       # Number of read requests responded to by this memory
system.mem_ctrls1.num_reads::switch_cpus.data      1340878                       # Number of read requests responded to by this memory
system.mem_ctrls1.num_reads::switch_cpus_1.data       274917                       # Number of read requests responded to by this memory
system.mem_ctrls1.num_reads::total            1615926                       # Number of read requests responded to by this memory
system.mem_ctrls1.num_writes::writebacks       546190                       # Number of write requests responded to by this memory
system.mem_ctrls1.num_writes::total            546190                       # Number of write requests responded to by this memory
system.mem_ctrls1.bw_read::cpu.inst                43                       # Total read bandwidth from this memory (bytes/s)
system.mem_ctrls1.bw_read::cpu.data               129                       # Total read bandwidth from this memory (bytes/s)
system.mem_ctrls1.bw_read::switch_cpus.inst         5447                       # Total read bandwidth from this memory (bytes/s)
system.mem_ctrls1.bw_read::switch_cpus.data     57512006                       # Total read bandwidth from this memory (bytes/s)
system.mem_ctrls1.bw_read::switch_cpus_1.data     11791549                       # Total read bandwidth from this memory (bytes/s)
system.mem_ctrls1.bw_read::total             69309174                       # Total read bandwidth from this memory (bytes/s)
system.mem_ctrls1.bw_inst_read::cpu.inst           43                       # Instruction read bandwidth from this memory (bytes/s)
system.mem_ctrls1.bw_inst_read::switch_cpus.inst         5447                       # Instruction read bandwidth from this memory (bytes/s)
system.mem_ctrls1.bw_inst_read::total            5490                       # Instruction read bandwidth from this memory (bytes/s)
system.mem_ctrls1.bw_write::writebacks       23426802                       # Write bandwidth from this memory (bytes/s)
system.mem_ctrls1.bw_write::total            23426802                       # Write bandwidth from this memory (bytes/s)
system.mem_ctrls1.bw_total::writebacks       23426802                       # Total bandwidth to/from this memory (bytes/s)
system.mem_ctrls1.bw_total::cpu.inst               43                       # Total bandwidth to/from this memory (bytes/s)
system.mem_ctrls1.bw_total::cpu.data              129                       # Total bandwidth to/from this memory (bytes/s)
system.mem_ctrls1.bw_total::switch_cpus.inst         5447                       # Total bandwidth to/from this memory (bytes/s)
system.mem_ctrls1.bw_total::switch_cpus.data     57512006                       # Total bandwidth to/from this memory (bytes/s)
system.mem_ctrls1.bw_total::switch_cpus_1.data     11791549                       # Total bandwidth to/from this memory (bytes/s)
system.mem_ctrls1.bw_total::total            92735976                       # Total bandwidth to/from this memory (bytes/s)
system.mem_ctrls1.readReqs                    1615926                       # Number of read requests accepted
system.mem_ctrls1.writeReqs                    546190                       # Number of write requests accepted
system.mem_ctrls1.readBursts                  1615926                       # Number of DRAM read bursts, including those serviced by the write queue
system.mem_ctrls1.writeBursts                  546190                       # Number of DRAM write bursts, including those merged in the write queue
system.mem_ctrls1.bytesReadDRAM             103401728                       # Total number of bytes read from DRAM
system.mem_ctrls1.bytesReadWrQ                  17536                       # Total number of bytes read from write queue
system.mem_ctrls1.bytesWritten               34954624                       # Total number of bytes written to DRAM
system.mem_ctrls1.bytesReadSys              103419264                       # Total read bytes from the system interface side
system.mem_ctrls1.bytesWrittenSys            34956160                       # Total written bytes from the system interface side
system.mem_ctrls1.servicedByWrQ                   274                       # Number of DRAM read bursts serviced by the write queue
system.mem_ctrls1.mergedWrBursts                    0                       # Number of DRAM write bursts merged with an existing one
system.mem_ctrls1.neitherReadNorWriteReqs            0                       # Number of requests that are neither read nor write
system.mem_ctrls1.perBankRdBursts::0           105134                       # Per bank write bursts
system.mem_ctrls1.perBankRdBursts::1           102680                       # Per bank write bursts
system.mem_ctrls1.perBankRdBursts::2           103543                       # Per bank write bursts
system.mem_ctrls1.perBankRdBursts::3           100856                       # Per bank write bursts
system.mem_ctrls1.perBankRdBursts::4           101680                       # Per bank write bursts
system.mem_ctrls1.perBankRdBursts::5           101417                       # Per bank write bursts
system.mem_ctrls1.perBankRdBursts::6           100533                       # Per bank write bursts
system.mem_ctrls1.perBankRdBursts::7           101157                       # Per bank write bursts
system.mem_ctrls1.perBankRdBursts::8           100234                       # Per bank write bursts
system.mem_ctrls1.perBankRdBursts::9            99003                       # Per bank write bursts
system.mem_ctrls1.perBankRdBursts::10           99077                       # Per bank write bursts
system.mem_ctrls1.perBankRdBursts::11           99422                       # Per bank write bursts
system.mem_ctrls1.perBankRdBursts::12           98469                       # Per bank write bursts
system.mem_ctrls1.perBankRdBursts::13           98629                       # Per bank write bursts
system.mem_ctrls1.perBankRdBursts::14          100469                       # Per bank write bursts
system.mem_ctrls1.perBankRdBursts::15          103349                       # Per bank write bursts
system.mem_ctrls1.perBankWrBursts::0            36353                       # Per bank write bursts
system.mem_ctrls1.perBankWrBursts::1            35235                       # Per bank write bursts
system.mem_ctrls1.perBankWrBursts::2            34794                       # Per bank write bursts
system.mem_ctrls1.perBankWrBursts::3            33682                       # Per bank write bursts
system.mem_ctrls1.perBankWrBursts::4            33616                       # Per bank write bursts
system.mem_ctrls1.perBankWrBursts::5            33552                       # Per bank write bursts
system.mem_ctrls1.perBankWrBursts::6            33486                       # Per bank write bursts
system.mem_ctrls1.perBankWrBursts::7            33955                       # Per bank write bursts
system.mem_ctrls1.perBankWrBursts::8            33533                       # Per bank write bursts
system.mem_ctrls1.perBankWrBursts::9            33293                       # Per bank write bursts
system.mem_ctrls1.perBankWrBursts::10           33734                       # Per bank write bursts
system.mem_ctrls1.perBankWrBursts::11           33725                       # Per bank write bursts
system.mem_ctrls1.perBankWrBursts::12           33555                       # Per bank write bursts
system.mem_ctrls1.perBankWrBursts::13           33668                       # Per bank write bursts
system.mem_ctrls1.perBankWrBursts::14           34399                       # Per bank write bursts
system.mem_ctrls1.perBankWrBursts::15           35586                       # Per bank write bursts
system.mem_ctrls1.numRdRetry                        0                       # Number of times read queue was full causing retry
system.mem_ctrls1.numWrRetry                        0                       # Number of times write queue was full causing retry
system.mem_ctrls1.totGap                 1492143541488                       # Total gap between requests
system.mem_ctrls1.readPktSize::0                    0                       # Read request sizes (log2)
system.mem_ctrls1.readPktSize::1                    0                       # Read request sizes (log2)
system.mem_ctrls1.readPktSize::2                    0                       # Read request sizes (log2)
system.mem_ctrls1.readPktSize::3                    0                       # Read request sizes (log2)
system.mem_ctrls1.readPktSize::4                    0                       # Read request sizes (log2)
system.mem_ctrls1.readPktSize::5                    0                       # Read request sizes (log2)
system.mem_ctrls1.readPktSize::6              1615926                       # Read request sizes (log2)
system.mem_ctrls1.writePktSize::0                   0                       # Write request sizes (log2)
system.mem_ctrls1.writePktSize::1                   0                       # Write request sizes (log2)
system.mem_ctrls1.writePktSize::2                   0                       # Write request sizes (log2)
system.mem_ctrls1.writePktSize::3                   0                       # Write request sizes (log2)
system.mem_ctrls1.writePktSize::4                   0                       # Write request sizes (log2)
system.mem_ctrls1.writePktSize::5                   0                       # Write request sizes (log2)
system.mem_ctrls1.writePktSize::6              546190                       # Write request sizes (log2)
system.mem_ctrls1.rdQLenPdf::0                1510543                       # What read queue length does an incoming req see
system.mem_ctrls1.rdQLenPdf::1                  92444                       # What read queue length does an incoming req see
system.mem_ctrls1.rdQLenPdf::2                  11729                       # What read queue length does an incoming req see
system.mem_ctrls1.rdQLenPdf::3                    936                       # What read queue length does an incoming req see
system.mem_ctrls1.rdQLenPdf::4                      0                       # What read queue length does an incoming req see
system.mem_ctrls1.rdQLenPdf::5                      0                       # What read queue length does an incoming req see
system.mem_ctrls1.rdQLenPdf::6                      0                       # What read queue length does an incoming req see
system.mem_ctrls1.rdQLenPdf::7                      0                       # What read queue length does an incoming req see
system.mem_ctrls1.rdQLenPdf::8                      0                       # What read queue length does an incoming req see
system.mem_ctrls1.rdQLenPdf::9                      0                       # What read queue length does an incoming req see
system.mem_ctrls1.rdQLenPdf::10                     0                       # What read queue length does an incoming req see
system.mem_ctrls1.rdQLenPdf::11                     0                       # What read queue length does an incoming req see
system.mem_ctrls1.rdQLenPdf::12                     0                       # What read queue length does an incoming req see
system.mem_ctrls1.rdQLenPdf::13                     0                       # What read queue length does an incoming req see
system.mem_ctrls1.rdQLenPdf::14                     0                       # What read queue length does an incoming req see
system.mem_ctrls1.rdQLenPdf::15                     0                       # What read queue length does an incoming req see
system.mem_ctrls1.rdQLenPdf::16                     0                       # What read queue length does an incoming req see
system.mem_ctrls1.rdQLenPdf::17                     0                       # What read queue length does an incoming req see
system.mem_ctrls1.rdQLenPdf::18                     0                       # What read queue length does an incoming req see
system.mem_ctrls1.rdQLenPdf::19                     0                       # What read queue length does an incoming req see
system.mem_ctrls1.rdQLenPdf::20                     0                       # What read queue length does an incoming req see
system.mem_ctrls1.rdQLenPdf::21                     0                       # What read queue length does an incoming req see
system.mem_ctrls1.rdQLenPdf::22                     0                       # What read queue length does an incoming req see
system.mem_ctrls1.rdQLenPdf::23                     0                       # What read queue length does an incoming req see
system.mem_ctrls1.rdQLenPdf::24                     0                       # What read queue length does an incoming req see
system.mem_ctrls1.rdQLenPdf::25                     0                       # What read queue length does an incoming req see
system.mem_ctrls1.rdQLenPdf::26                     0                       # What read queue length does an incoming req see
system.mem_ctrls1.rdQLenPdf::27                     0                       # What read queue length does an incoming req see
system.mem_ctrls1.rdQLenPdf::28                     0                       # What read queue length does an incoming req see
system.mem_ctrls1.rdQLenPdf::29                     0                       # What read queue length does an incoming req see
system.mem_ctrls1.rdQLenPdf::30                     0                       # What read queue length does an incoming req see
system.mem_ctrls1.rdQLenPdf::31                     0                       # What read queue length does an incoming req see
system.mem_ctrls1.wrQLenPdf::0                      2                       # What write queue length does an incoming req see
system.mem_ctrls1.wrQLenPdf::1                      2                       # What write queue length does an incoming req see
system.mem_ctrls1.wrQLenPdf::2                      2                       # What write queue length does an incoming req see
system.mem_ctrls1.wrQLenPdf::3                      2                       # What write queue length does an incoming req see
system.mem_ctrls1.wrQLenPdf::4                      2                       # What write queue length does an incoming req see
system.mem_ctrls1.wrQLenPdf::5                      2                       # What write queue length does an incoming req see
system.mem_ctrls1.wrQLenPdf::6                      2                       # What write queue length does an incoming req see
system.mem_ctrls1.wrQLenPdf::7                      2                       # What write queue length does an incoming req see
system.mem_ctrls1.wrQLenPdf::8                      2                       # What write queue length does an incoming req see
system.mem_ctrls1.wrQLenPdf::9                      2                       # What write queue length does an incoming req see
system.mem_ctrls1.wrQLenPdf::10                     2                       # What write queue length does an incoming req see
system.mem_ctrls1.wrQLenPdf::11                     2                       # What write queue length does an incoming req see
system.mem_ctrls1.wrQLenPdf::12                     2                       # What write queue length does an incoming req see
system.mem_ctrls1.wrQLenPdf::13                     2                       # What write queue length does an incoming req see
system.mem_ctrls1.wrQLenPdf::14                     2                       # What write queue length does an incoming req see
system.mem_ctrls1.wrQLenPdf::15                 17234                       # What write queue length does an incoming req see
system.mem_ctrls1.wrQLenPdf::16                 18012                       # What write queue length does an incoming req see
system.mem_ctrls1.wrQLenPdf::17                 30236                       # What write queue length does an incoming req see
system.mem_ctrls1.wrQLenPdf::18                 31764                       # What write queue length does an incoming req see
system.mem_ctrls1.wrQLenPdf::19                 32003                       # What write queue length does an incoming req see
system.mem_ctrls1.wrQLenPdf::20                 32053                       # What write queue length does an incoming req see
system.mem_ctrls1.wrQLenPdf::21                 31996                       # What write queue length does an incoming req see
system.mem_ctrls1.wrQLenPdf::22                 32046                       # What write queue length does an incoming req see
system.mem_ctrls1.wrQLenPdf::23                 32029                       # What write queue length does an incoming req see
system.mem_ctrls1.wrQLenPdf::24                 32030                       # What write queue length does an incoming req see
system.mem_ctrls1.wrQLenPdf::25                 32038                       # What write queue length does an incoming req see
system.mem_ctrls1.wrQLenPdf::26                 32002                       # What write queue length does an incoming req see
system.mem_ctrls1.wrQLenPdf::27                 32075                       # What write queue length does an incoming req see
system.mem_ctrls1.wrQLenPdf::28                 32447                       # What write queue length does an incoming req see
system.mem_ctrls1.wrQLenPdf::29                 32311                       # What write queue length does an incoming req see
system.mem_ctrls1.wrQLenPdf::30                 32044                       # What write queue length does an incoming req see
system.mem_ctrls1.wrQLenPdf::31                 31880                       # What write queue length does an incoming req see
system.mem_ctrls1.wrQLenPdf::32                 31844                       # What write queue length does an incoming req see
system.mem_ctrls1.wrQLenPdf::33                   105                       # What write queue length does an incoming req see
system.mem_ctrls1.wrQLenPdf::34                    11                       # What write queue length does an incoming req see
system.mem_ctrls1.wrQLenPdf::35                     0                       # What write queue length does an incoming req see
system.mem_ctrls1.wrQLenPdf::36                     0                       # What write queue length does an incoming req see
system.mem_ctrls1.wrQLenPdf::37                     0                       # What write queue length does an incoming req see
system.mem_ctrls1.wrQLenPdf::38                     0                       # What write queue length does an incoming req see
system.mem_ctrls1.wrQLenPdf::39                     0                       # What write queue length does an incoming req see
system.mem_ctrls1.wrQLenPdf::40                     0                       # What write queue length does an incoming req see
system.mem_ctrls1.wrQLenPdf::41                     0                       # What write queue length does an incoming req see
system.mem_ctrls1.wrQLenPdf::42                     0                       # What write queue length does an incoming req see
system.mem_ctrls1.wrQLenPdf::43                     0                       # What write queue length does an incoming req see
system.mem_ctrls1.wrQLenPdf::44                     0                       # What write queue length does an incoming req see
system.mem_ctrls1.wrQLenPdf::45                     0                       # What write queue length does an incoming req see
system.mem_ctrls1.wrQLenPdf::46                     0                       # What write queue length does an incoming req see
system.mem_ctrls1.wrQLenPdf::47                     0                       # What write queue length does an incoming req see
system.mem_ctrls1.wrQLenPdf::48                     0                       # What write queue length does an incoming req see
system.mem_ctrls1.wrQLenPdf::49                     0                       # What write queue length does an incoming req see
system.mem_ctrls1.wrQLenPdf::50                     0                       # What write queue length does an incoming req see
system.mem_ctrls1.wrQLenPdf::51                     0                       # What write queue length does an incoming req see
system.mem_ctrls1.wrQLenPdf::52                     0                       # What write queue length does an incoming req see
system.mem_ctrls1.wrQLenPdf::53                     0                       # What write queue length does an incoming req see
system.mem_ctrls1.wrQLenPdf::54                     0                       # What write queue length does an incoming req see
system.mem_ctrls1.wrQLenPdf::55                     0                       # What write queue length does an incoming req see
system.mem_ctrls1.wrQLenPdf::56                     0                       # What write queue length does an incoming req see
system.mem_ctrls1.wrQLenPdf::57                     0                       # What write queue length does an incoming req see
system.mem_ctrls1.wrQLenPdf::58                     0                       # What write queue length does an incoming req see
system.mem_ctrls1.wrQLenPdf::59                     0                       # What write queue length does an incoming req see
system.mem_ctrls1.wrQLenPdf::60                     0                       # What write queue length does an incoming req see
system.mem_ctrls1.wrQLenPdf::61                     0                       # What write queue length does an incoming req see
system.mem_ctrls1.wrQLenPdf::62                     0                       # What write queue length does an incoming req see
system.mem_ctrls1.wrQLenPdf::63                     0                       # What write queue length does an incoming req see
system.mem_ctrls1.bytesPerActivate::samples      1956489                       # Bytes accessed per row activation
system.mem_ctrls1.bytesPerActivate::mean    70.716227                       # Bytes accessed per row activation
system.mem_ctrls1.bytesPerActivate::gmean    67.829794                       # Bytes accessed per row activation
system.mem_ctrls1.bytesPerActivate::stdev    31.421729                       # Bytes accessed per row activation
system.mem_ctrls1.bytesPerActivate::0-127      1830933     93.58%     93.58% # Bytes accessed per row activation
system.mem_ctrls1.bytesPerActivate::128-255       105260      5.38%     98.96% # Bytes accessed per row activation
system.mem_ctrls1.bytesPerActivate::256-383        16482      0.84%     99.81% # Bytes accessed per row activation
system.mem_ctrls1.bytesPerActivate::384-511         3088      0.16%     99.96% # Bytes accessed per row activation
system.mem_ctrls1.bytesPerActivate::512-639          563      0.03%     99.99% # Bytes accessed per row activation
system.mem_ctrls1.bytesPerActivate::640-767          126      0.01%    100.00% # Bytes accessed per row activation
system.mem_ctrls1.bytesPerActivate::768-895           26      0.00%    100.00% # Bytes accessed per row activation
system.mem_ctrls1.bytesPerActivate::896-1023            7      0.00%    100.00% # Bytes accessed per row activation
system.mem_ctrls1.bytesPerActivate::1024-1151            4      0.00%    100.00% # Bytes accessed per row activation
system.mem_ctrls1.bytesPerActivate::total      1956489                       # Bytes accessed per row activation
system.mem_ctrls1.rdPerTurnAround::samples        31834                       # Reads before turning the bus around for writes
system.mem_ctrls1.rdPerTurnAround::mean     50.751461                       # Reads before turning the bus around for writes
system.mem_ctrls1.rdPerTurnAround::gmean    47.921363                       # Reads before turning the bus around for writes
system.mem_ctrls1.rdPerTurnAround::stdev   115.095531                       # Reads before turning the bus around for writes
system.mem_ctrls1.rdPerTurnAround::0-1023        31830     99.99%     99.99% # Reads before turning the bus around for writes
system.mem_ctrls1.rdPerTurnAround::1024-2047            3      0.01%    100.00% # Reads before turning the bus around for writes
system.mem_ctrls1.rdPerTurnAround::19456-20479            1      0.00%    100.00% # Reads before turning the bus around for writes
system.mem_ctrls1.rdPerTurnAround::total        31834                       # Reads before turning the bus around for writes
system.mem_ctrls1.wrPerTurnAround::samples        31834                       # Writes before turning the bus around for reads
system.mem_ctrls1.wrPerTurnAround::mean     17.156688                       # Writes before turning the bus around for reads
system.mem_ctrls1.wrPerTurnAround::gmean    17.124222                       # Writes before turning the bus around for reads
system.mem_ctrls1.wrPerTurnAround::stdev     1.054665                       # Writes before turning the bus around for reads
system.mem_ctrls1.wrPerTurnAround::16           13873     43.58%     43.58% # Writes before turning the bus around for reads
system.mem_ctrls1.wrPerTurnAround::17             648      2.04%     45.61% # Writes before turning the bus around for reads
system.mem_ctrls1.wrPerTurnAround::18           15893     49.92%     95.54% # Writes before turning the bus around for reads
system.mem_ctrls1.wrPerTurnAround::19            1308      4.11%     99.65% # Writes before turning the bus around for reads
system.mem_ctrls1.wrPerTurnAround::20             104      0.33%     99.97% # Writes before turning the bus around for reads
system.mem_ctrls1.wrPerTurnAround::21               7      0.02%    100.00% # Writes before turning the bus around for reads
system.mem_ctrls1.wrPerTurnAround::29               1      0.00%    100.00% # Writes before turning the bus around for reads
system.mem_ctrls1.wrPerTurnAround::total        31834                       # Writes before turning the bus around for reads
system.mem_ctrls1.totQLat                 86612885106                       # Total ticks spent queuing
system.mem_ctrls1.totMemAccLat           116906360106                       # Total ticks spent from burst creation until serviced by the DRAM
system.mem_ctrls1.totBusLat                8078260000                       # Total ticks spent in databus transfers
system.mem_ctrls1.avgQLat                    53608.63                       # Average queueing delay per DRAM burst
system.mem_ctrls1.avgBusLat                   5000.00                       # Average bus latency per DRAM burst
system.mem_ctrls1.avgMemAccLat               72358.63                       # Average memory access latency per DRAM burst
system.mem_ctrls1.avgRdBW                       69.30                       # Average DRAM read bandwidth in MiByte/s
system.mem_ctrls1.avgWrBW                       23.43                       # Average achieved write bandwidth in MiByte/s
system.mem_ctrls1.avgRdBWSys                    69.31                       # Average system read bandwidth in MiByte/s
system.mem_ctrls1.avgWrBWSys                    23.43                       # Average system write bandwidth in MiByte/s
system.mem_ctrls1.peakBW                     12800.00                       # Theoretical peak bandwidth in MiByte/s
system.mem_ctrls1.busUtil                        0.72                       # Data bus utilization in percentage
system.mem_ctrls1.busUtilRead                    0.54                       # Data bus utilization in percentage for reads
system.mem_ctrls1.busUtilWrite                   0.18                       # Data bus utilization in percentage for writes
system.mem_ctrls1.avgRdQLen                      1.01                       # Average read queue length when enqueuing
system.mem_ctrls1.avgWrQLen                     24.41                       # Average write queue length when enqueuing
system.mem_ctrls1.readRowHits                   32518                       # Number of row buffer hits during reads
system.mem_ctrls1.writeRowHits                 172801                       # Number of row buffer hits during writes
system.mem_ctrls1.readRowHitRate                 2.01                       # Row buffer hit rate for reads
system.mem_ctrls1.writeRowHitRate               31.64                       # Row buffer hit rate for writes
system.mem_ctrls1.avgGap                    690131.12                       # Average gap between requests
system.mem_ctrls1.pageHitRate                    9.50                       # Row buffer hit rate, read and write combined
system.mem_ctrls1_0.actEnergy              7052292240                       # Energy for activate commands per rank (pJ)
system.mem_ctrls1_0.preEnergy              3748363245                       # Energy for precharge commands per rank (pJ)
system.mem_ctrls1_0.readEnergy             5833380000                       # Energy for read commands per rank (pJ)
system.mem_ctrls1_0.writeEnergy            1433793060                       # Energy for write commands per rank (pJ)
system.mem_ctrls1_0.refreshEnergy        119634144240.000031                       # Energy for refresh commands per rank (pJ)
system.mem_ctrls1_0.actBackEnergy         63270285570                       # Energy for active background per rank (pJ)
system.mem_ctrls1_0.preBackEnergy          6138005280                       # Energy for precharge background per rank (pJ)
system.mem_ctrls1_0.actPowerDownEnergy   326686867920                       # Energy for active power-down per rank (pJ)
system.mem_ctrls1_0.prePowerDownEnergy   162970643520                       # Energy for precharge power-down per rank (pJ)
system.mem_ctrls1_0.selfRefreshEnergy     63948066675                       # Energy for self refresh per rank (pJ)
system.mem_ctrls1_0.totalEnergy          760759103160                       # Total energy per rank (pJ)
system.mem_ctrls1_0.averagePower           509.842966                       # Core power per rank (mW)
system.mem_ctrls1_0.totalIdleTime        1337311042667                       # Total Idle time Per DRAM Rank
system.mem_ctrls1_0.memoryStateTime::IDLE   8823512380                       # Time in different power states
system.mem_ctrls1_0.memoryStateTime::REF  50793056000                       # Time in different power states
system.mem_ctrls1_0.memoryStateTime::SREF 196491318959                       # Time in different power states
system.mem_ctrls1_0.memoryStateTime::PRE_PDN 424404510994                       # Time in different power states
system.mem_ctrls1_0.memoryStateTime::ACT  95215785361                       # Time in different power states
system.mem_ctrls1_0.memoryStateTime::ACT_PDN 716415757394                       # Time in different power states
system.mem_ctrls1_1.actEnergy              6917110620                       # Energy for activate commands per rank (pJ)
system.mem_ctrls1_1.preEnergy              3676512510                       # Energy for precharge commands per rank (pJ)
system.mem_ctrls1_1.readEnergy             5702375280                       # Energy for read commands per rank (pJ)
system.mem_ctrls1_1.writeEnergy            1417193460                       # Energy for write commands per rank (pJ)
system.mem_ctrls1_1.refreshEnergy        120731276640.000031                       # Energy for refresh commands per rank (pJ)
system.mem_ctrls1_1.actBackEnergy         62358576270                       # Energy for active background per rank (pJ)
system.mem_ctrls1_1.preBackEnergy          5913006720                       # Energy for precharge background per rank (pJ)
system.mem_ctrls1_1.actPowerDownEnergy   328065479040                       # Energy for active power-down per rank (pJ)
system.mem_ctrls1_1.prePowerDownEnergy   171319370400                       # Energy for precharge power-down per rank (pJ)
system.mem_ctrls1_1.selfRefreshEnergy     57996983520                       # Energy for self refresh per rank (pJ)
system.mem_ctrls1_1.totalEnergy          764155735140                       # Total energy per rank (pJ)
system.mem_ctrls1_1.averagePower           512.119308                       # Core power per rank (mW)
system.mem_ctrls1_1.totalIdleTime        1339861524634                       # Total Idle time Per DRAM Rank
system.mem_ctrls1_1.memoryStateTime::IDLE   8544724335                       # Time in different power states
system.mem_ctrls1_1.memoryStateTime::REF  51251498000                       # Time in different power states
system.mem_ctrls1_1.memoryStateTime::SREF 174279358601                       # Time in different power states
system.mem_ctrls1_1.memoryStateTime::PRE_PDN 446142893416                       # Time in different power states
system.mem_ctrls1_1.memoryStateTime::ACT  92486024494                       # Time in different power states
system.mem_ctrls1_1.memoryStateTime::ACT_PDN 719439442242                       # Time in different power states
system.pwrStateResidencyTicks::UNDEFINED 34795521865449                       # Cumulative time (in ticks) in various power states
system.cpu.branchPred.lookups                       0                       # Number of BP lookups
system.cpu.branchPred.condPredicted                 0                       # Number of conditional branches predicted
system.cpu.branchPred.condIncorrect                 0                       # Number of conditional branches incorrect
system.cpu.branchPred.BTBLookups                    0                       # Number of BTB lookups
system.cpu.branchPred.BTBHits                       0                       # Number of BTB hits
system.cpu.branchPred.BTBCorrect                    0                       # Number of correct BTB predictions (this stat may not work properly.
system.cpu.branchPred.BTBHitPct                   nan                       # BTB Hit Percentage
system.cpu.branchPred.usedRAS                       0                       # Number of times the RAS was used to get a target.
system.cpu.branchPred.RASInCorrect                  0                       # Number of incorrect RAS predictions.
system.cpu.branchPred.indirectLookups               0                       # Number of indirect predictor lookups.
system.cpu.branchPred.indirectHits                  0                       # Number of indirect target hits.
system.cpu.branchPred.indirectMisses                0                       # Number of indirect misses.
system.cpu.branchPredindirectMispredicted            0                       # Number of mispredicted indirect branches.
system.cpu_voltage_domain.voltage                   1                       # Voltage in Volts
system.cpu_clk_domain.clock                       333                       # Clock period in ticks
system.cpu.dtb.fetch_hits                           0                       # ITB hits
system.cpu.dtb.fetch_misses                         0                       # ITB misses
system.cpu.dtb.fetch_acv                            0                       # ITB acv
system.cpu.dtb.fetch_accesses                       0                       # ITB accesses
system.cpu.dtb.read_hits                           16                       # DTB read hits
system.cpu.dtb.read_misses                          0                       # DTB read misses
system.cpu.dtb.read_acv                             0                       # DTB read access violations
system.cpu.dtb.read_accesses                       16                       # DTB read accesses
system.cpu.dtb.write_hits                           1                       # DTB write hits
system.cpu.dtb.write_misses                         0                       # DTB write misses
system.cpu.dtb.write_acv                            0                       # DTB write access violations
system.cpu.dtb.write_accesses                       1                       # DTB write accesses
system.cpu.dtb.data_hits                           17                       # DTB hits
system.cpu.dtb.data_misses                          0                       # DTB misses
system.cpu.dtb.data_acv                             0                       # DTB access violations
system.cpu.dtb.data_accesses                       17                       # DTB accesses
system.cpu.itb.fetch_hits                           4                       # ITB hits
system.cpu.itb.fetch_misses                         0                       # ITB misses
system.cpu.itb.fetch_acv                            0                       # ITB acv
system.cpu.itb.fetch_accesses                       4                       # ITB accesses
system.cpu.itb.read_hits                            0                       # DTB read hits
system.cpu.itb.read_misses                          0                       # DTB read misses
system.cpu.itb.read_acv                             0                       # DTB read access violations
system.cpu.itb.read_accesses                        0                       # DTB read accesses
system.cpu.itb.write_hits                           0                       # DTB write hits
system.cpu.itb.write_misses                         0                       # DTB write misses
system.cpu.itb.write_acv                            0                       # DTB write access violations
system.cpu.itb.write_accesses                       0                       # DTB write accesses
system.cpu.itb.data_hits                            0                       # DTB hits
system.cpu.itb.data_misses                          0                       # DTB misses
system.cpu.itb.data_acv                             0                       # DTB access violations
system.cpu.itb.data_accesses                        0                       # DTB accesses
system.cpu.workload.num_syscalls                    0                       # Number of system calls
system.cpu.pwrStateResidencyTicks::ON    1492143941088                       # Cumulative time (in ticks) in various power states
system.cpu.numCycles                              796                       # number of cpu cycles simulated
system.cpu.numWorkItemsStarted                      0                       # number of work items this cpu started
system.cpu.numWorkItemsCompleted                    0                       # number of work items this cpu completed
system.cpu.fetch.icacheStallCycles                 62                       # Number of cycles fetch is stalled on an Icache miss
system.cpu.fetch.Insts                             17                       # Number of instructions fetch has processed
system.cpu.fetch.Cycles                             3                       # Number of cycles fetch has run and was not squashing or blocked
system.cpu.fetch.SquashCycles                       3                       # Number of cycles fetch has spent squashing
system.cpu.fetch.PendingDrainCycles                 6                       # Number of cycles fetch has spent waiting on pipes to drain
system.cpu.fetch.CacheLines                         4                       # Number of cache lines fetched
system.cpu.fetch.IcacheSquashes                     2                       # Number of outstanding Icache misses that were squashed
system.cpu.fetch.rateDist::samples                 72                       # Number of instructions fetched each cycle (Total)
system.cpu.fetch.rateDist::mean              0.236111                       # Number of instructions fetched each cycle (Total)
system.cpu.fetch.rateDist::stdev             1.326789                       # Number of instructions fetched each cycle (Total)
system.cpu.fetch.rateDist::underflows               0      0.00%      0.00% # Number of instructions fetched each cycle (Total)
system.cpu.fetch.rateDist::0                       69     95.83%     95.83% # Number of instructions fetched each cycle (Total)
system.cpu.fetch.rateDist::1                        1      1.39%     97.22% # Number of instructions fetched each cycle (Total)
system.cpu.fetch.rateDist::2                        0      0.00%     97.22% # Number of instructions fetched each cycle (Total)
system.cpu.fetch.rateDist::3                        0      0.00%     97.22% # Number of instructions fetched each cycle (Total)
system.cpu.fetch.rateDist::4                        0      0.00%     97.22% # Number of instructions fetched each cycle (Total)
system.cpu.fetch.rateDist::5                        0      0.00%     97.22% # Number of instructions fetched each cycle (Total)
system.cpu.fetch.rateDist::6                        0      0.00%     97.22% # Number of instructions fetched each cycle (Total)
system.cpu.fetch.rateDist::7                        0      0.00%     97.22% # Number of instructions fetched each cycle (Total)
system.cpu.fetch.rateDist::8                        2      2.78%    100.00% # Number of instructions fetched each cycle (Total)
system.cpu.fetch.rateDist::overflows                0      0.00%    100.00% # Number of instructions fetched each cycle (Total)
system.cpu.fetch.rateDist::min_value                0                       # Number of instructions fetched each cycle (Total)
[...]
system.switch_cpus_1.iq.rate                 1.607883                       # Inst issue rate
system.switch_cpus_1.iq.fu_busy_cnt          15151743                       # FU busy when requested
system.switch_cpus_1.iq.fu_busy_rate         0.073637                       # FU busy rate (busy events/executed inst)
system.switch_cpus_1.iq.int_inst_queue_reads    188416701                       # Number of integer instruction queue reads
system.switch_cpus_1.iq.int_inst_queue_writes     28247695                       # Number of integer instruction queue writes
system.switch_cpus_1.iq.int_inst_queue_wakeup_accesses     27844042                       # Number of integer instruction queue wakeup accesses
system.switch_cpus_1.iq.fp_inst_queue_reads    366267062                       # Number of floating instruction queue reads
system.switch_cpus_1.iq.fp_inst_queue_writes    173992804                       # Number of floating instruction queue writes
system.switch_cpus_1.iq.fp_inst_queue_wakeup_accesses    172770702                       # Number of floating instruction queue wakeup accesses
system.switch_cpus_1.iq.int_alu_accesses     31705975                       # Number of integer alu accesses
system.switch_cpus_1.iq.fp_alu_accesses     189208298                       # Number of floating point alu accesses
system.switch_cpus_1.iew.lsq.thread0.forwLoads      9189143                       # Number of loads that had data forwarded from stores
system.switch_cpus_1.iew.lsq.thread0.invAddrLoads            0                       # Number of loads ignored due to an invalid address
system.switch_cpus_1.iew.lsq.thread0.squashedLoads       416271                       # Number of loads squashed
system.switch_cpus_1.iew.lsq.thread0.ignoredResponses          416                       # Number of memory responses ignored because the instruction is squashed
system.switch_cpus_1.iew.lsq.thread0.memOrderViolation        20962                       # Number of memory ordering violations
system.switch_cpus_1.iew.lsq.thread0.squashedStores       222733                       # Number of stores squashed
system.switch_cpus_1.iew.lsq.thread0.invAddrSwpfs            0                       # Number of software prefetches ignored due to an invalid address
system.switch_cpus_1.iew.lsq.thread0.blockedLoads            0                       # Number of blocked loads due to partial load-store forwarding
system.switch_cpus_1.iew.lsq.thread0.rescheduledLoads            0                       # Number of loads that were rescheduled
system.switch_cpus_1.iew.lsq.thread0.cacheBlocked      5240559                       # Number of times an access to memory failed due to the cache being blocked
system.switch_cpus_1.iew.iewIdleCycles              0                       # Number of cycles IEW is idle
system.switch_cpus_1.iew.iewSquashCycles        25236                       # Number of cycles IEW is squashing
system.switch_cpus_1.iew.iewBlockCycles      14613772                       # Number of cycles IEW is blocking
system.switch_cpus_1.iew.iewUnblockCycles     20642887                       # Number of cycles IEW is unblocking
system.switch_cpus_1.iew.iewDispatchedInsts    201109886                       # Number of instructions dispatched to IQ
system.switch_cpus_1.iew.iewDispSquashedInsts         2018                       # Number of squashed instructions skipped by dispatch
system.switch_cpus_1.iew.iewDispLoadInsts     82550190                       # Number of dispatched load instructions
system.switch_cpus_1.iew.iewDispStoreInsts     38177489                       # Number of dispatched store instructions
system.switch_cpus_1.iew.iewDispNonSpecInsts            0                       # Number of dispatched non-speculative instructions
system.switch_cpus_1.iew.iewIQFullEvents        16862                       # Number of times the IQ has become full, causing a stall
system.switch_cpus_1.iew.iewLSQFullEvents     20563301                       # Number of times the LSQ has become full, causing a stall
system.switch_cpus_1.iew.memOrderViolationEvents        20962                       # Number of memory order violations
system.switch_cpus_1.iew.predictedTakenIncorrect         1397                       # Number of branches that were predicted taken incorrectly
system.switch_cpus_1.iew.predictedNotTakenIncorrect           68                       # Number of branches that were predicted not taken incorrectly
system.switch_cpus_1.iew.branchMispredicts         1465                       # Number of branch mispredicts detected at execute
system.switch_cpus_1.iew.iewExecutedInsts    205698570                       # Number of executed instructions
system.switch_cpus_1.iew.iewExecLoadInsts     87427960                       # Number of load instructions executed
system.switch_cpus_1.iew.iewExecSquashedInsts        63951                       # Number of squashed instructions skipped in execute
system.switch_cpus_1.iew.exec_swp                   0                       # number of swp insts executed
system.switch_cpus_1.iew.exec_nop                  27                       # number of nop insts executed
system.switch_cpus_1.iew.exec_refs          125478985                       # number of memory reference insts executed
system.switch_cpus_1.iew.exec_branches         171914                       # Number of branches executed
system.switch_cpus_1.iew.exec_stores         38051025                       # Number of stores executed
system.switch_cpus_1.iew.exec_rate           1.607384                       # Inst execution rate
system.switch_cpus_1.iew.wb_sent            200672154                       # cumulative count of insts sent to commit
system.switch_cpus_1.iew.wb_count           200614744                       # cumulative count of insts written-back
system.switch_cpus_1.iew.wb_producers       131415285                       # num instructions producing a value
system.switch_cpus_1.iew.wb_consumers       136815422                       # num instructions consuming a value
system.switch_cpus_1.iew.wb_rate             1.567657                       # insts written-back per cycle
system.switch_cpus_1.iew.wb_fanout           0.960530                       # average fanout of values written-back
system.switch_cpus_1.commit.commitSquashedInsts      1065740                       # The number of squashed insts skipped by commit
system.switch_cpus_1.commit.branchMispredicts         1459                       # The number of times a branch was mispredicted
system.switch_cpus_1.commit.committed_per_cycle::samples    127824019                       # Number of insts commited each cycle
system.switch_cpus_1.commit.committed_per_cycle::mean     1.564651                       # Number of insts commited each cycle
system.switch_cpus_1.commit.committed_per_cycle::stdev     2.897772                       # Number of insts commited each cycle
system.switch_cpus_1.commit.committed_per_cycle::underflows            0      0.00%      0.00% # Number of insts commited each cycle
system.switch_cpus_1.commit.committed_per_cycle::0     93352419     73.03%     73.03% # Number of insts commited each cycle
system.switch_cpus_1.commit.committed_per_cycle::1      2876845      2.25%     75.28% # Number of insts commited each cycle
system.switch_cpus_1.commit.committed_per_cycle::2      3119904      2.44%     77.72% # Number of insts commited each cycle
system.switch_cpus_1.commit.committed_per_cycle::3      2398395      1.88%     79.60% # Number of insts commited each cycle
system.switch_cpus_1.commit.committed_per_cycle::4      2979038      2.33%     81.93% # Number of insts commited each cycle
system.switch_cpus_1.commit.committed_per_cycle::5      2477276      1.94%     83.87% # Number of insts commited each cycle
system.switch_cpus_1.commit.committed_per_cycle::6      1841762      1.44%     85.31% # Number of insts commited each cycle
system.switch_cpus_1.commit.committed_per_cycle::7      1891958      1.48%     86.79% # Number of insts commited each cycle
system.switch_cpus_1.commit.committed_per_cycle::8     16886422     13.21%    100.00% # Number of insts commited each cycle
system.switch_cpus_1.commit.committed_per_cycle::overflows            0      0.00%    100.00% # Number of insts commited each cycle
system.switch_cpus_1.commit.committed_per_cycle::min_value            0                       # Number of insts commited each cycle
system.switch_cpus_1.commit.committed_per_cycle::max_value            8                       # Number of insts commited each cycle
system.switch_cpus_1.commit.committed_per_cycle::total    127824019                       # Number of insts commited each cycle
system.switch_cpus_1.commit.committedInsts    200000024                       # Number of instructions committed
system.switch_cpus_1.commit.committedOps    200000024                       # Number of ops (including micro ops) committed
system.switch_cpus_1.commit.swp_count               0                       # Number of s/w prefetches committed
system.switch_cpus_1.commit.refs            120088640                       # Number of memory references committed
system.switch_cpus_1.commit.loads            82133897                       # Number of loads committed
system.switch_cpus_1.commit.membars                 0                       # Number of memory barriers committed
system.switch_cpus_1.commit.branches           167612                       # Number of branches committed
system.switch_cpus_1.commit.fp_insts        172405126                       # Number of committed floating point instructions.
system.switch_cpus_1.commit.int_insts       135398704                       # Number of committed integer instructions.
system.switch_cpus_1.commit.function_calls            0                       # Number of function calls committed.
system.switch_cpus_1.commit.op_class_0::No_OpClass           18      0.00%      0.00% # Class of committed instruction
system.switch_cpus_1.commit.op_class_0::IntAlu     15310537      7.66%      7.66% # Class of committed instruction
system.switch_cpus_1.commit.op_class_0::IntMult          186      0.00%      7.66% # Class of committed instruction
system.switch_cpus_1.commit.op_class_0::IntDiv            0      0.00%      7.66% # Class of committed instruction
system.switch_cpus_1.commit.op_class_0::FloatAdd     36073856     18.04%     25.69% # Class of committed instruction
system.switch_cpus_1.commit.op_class_0::FloatCmp            0      0.00%     25.69% # Class of committed instruction
system.switch_cpus_1.commit.op_class_0::FloatCvt            0      0.00%     25.69% # Class of committed instruction
system.switch_cpus_1.commit.op_class_0::FloatMult     28449010     14.22%     39.92% # Class of committed instruction
system.switch_cpus_1.commit.op_class_0::FloatMultAcc            0      0.00%     39.92% # Class of committed instruction
system.switch_cpus_1.commit.op_class_0::FloatDiv        77777      0.04%     39.96% # Class of committed instruction
system.switch_cpus_1.commit.op_class_0::FloatMisc            0      0.00%     39.96% # Class of committed instruction
system.switch_cpus_1.commit.op_class_0::FloatSqrt            0      0.00%     39.96% # Class of committed instruction
system.switch_cpus_1.commit.op_class_0::SimdAdd            0      0.00%     39.96% # Class of committed instruction
system.switch_cpus_1.commit.op_class_0::SimdAddAcc            0      0.00%     39.96% # Class of committed instruction
system.switch_cpus_1.commit.op_class_0::SimdAlu            0      0.00%     39.96% # Class of committed instruction
system.switch_cpus_1.commit.op_class_0::SimdCmp            0      0.00%     39.96% # Class of committed instruction
system.switch_cpus_1.commit.op_class_0::SimdCvt            0      0.00%     39.96% # Class of committed instruction
system.switch_cpus_1.commit.op_class_0::SimdMisc            0      0.00%     39.96% # Class of committed instruction
system.switch_cpus_1.commit.op_class_0::SimdMult            0      0.00%     39.96% # Class of committed instruction
system.switch_cpus_1.commit.op_class_0::SimdMultAcc            0      0.00%     39.96% # Class of committed instruction
system.switch_cpus_1.commit.op_class_0::SimdShift            0      0.00%     39.96% # Class of committed instruction
system.switch_cpus_1.commit.op_class_0::SimdShiftAcc            0      0.00%     39.96% # Class of committed instruction
system.switch_cpus_1.commit.op_class_0::SimdSqrt            0      0.00%     39.96% # Class of committed instruction
system.switch_cpus_1.commit.op_class_0::SimdFloatAdd            0      0.00%     39.96% # Class of committed instruction
system.switch_cpus_1.commit.op_class_0::SimdFloatAlu            0      0.00%     39.96% # Class of committed instruction
system.switch_cpus_1.commit.op_class_0::SimdFloatCmp            0      0.00%     39.96% # Class of committed instruction
system.switch_cpus_1.commit.op_class_0::SimdFloatCvt            0      0.00%     39.96% # Class of committed instruction
system.switch_cpus_1.commit.op_class_0::SimdFloatDiv            0      0.00%     39.96% # Class of committed instruction
system.switch_cpus_1.commit.op_class_0::SimdFloatMisc            0      0.00%     39.96% # Class of committed instruction
system.switch_cpus_1.commit.op_class_0::SimdFloatMult            0      0.00%     39.96% # Class of committed instruction
system.switch_cpus_1.commit.op_class_0::SimdFloatMultAcc            0      0.00%     39.96% # Class of committed instruction
system.switch_cpus_1.commit.op_class_0::SimdFloatSqrt            0      0.00%     39.96% # Class of committed instruction
system.switch_cpus_1.commit.op_class_0::MemRead      8202704      4.10%     44.06% # Class of committed instruction
system.switch_cpus_1.commit.op_class_0::MemWrite      4081453      2.04%     46.10% # Class of committed instruction
system.switch_cpus_1.commit.op_class_0::FloatMemRead     73931193     36.97%     83.06% # Class of committed instruction
system.switch_cpus_1.commit.op_class_0::FloatMemWrite     33873290     16.94%    100.00% # Class of committed instruction
system.switch_cpus_1.commit.op_class_0::IprAccess            0      0.00%    100.00% # Class of committed instruction
system.switch_cpus_1.commit.op_class_0::InstPrefetch            0      0.00%    100.00% # Class of committed instruction
system.switch_cpus_1.commit.op_class_0::total    200000024                       # Class of committed instruction
system.switch_cpus_1.commit.bw_lim_events     16886422                       # number cycles where commit BW limit reached
system.switch_cpus_1.rob.rob_reads          311925361                       # The number of ROB reads
system.switch_cpus_1.rob.rob_writes         402279465                       # The number of ROB writes
system.switch_cpus_1.timesIdled                     3                       # Number of times that the entire CPU went into an idle state and unscheduled itself
system.switch_cpus_1.idleCycles                   242                       # Total number of cycles that the CPU has spent unscheduled due to idling
system.switch_cpus_1.committedInsts         200000006                       # Number of Instructions Simulated
system.switch_cpus_1.committedOps           200000006                       # Number of Ops (including micro ops) Simulated
system.switch_cpus_1.cpi                     0.639855                       # CPI: Cycles Per Instruction
system.switch_cpus_1.cpi_total               0.639855                       # CPI: Total CPI of All Threads
system.switch_cpus_1.ipc                     1.562854                       # IPC: Instructions Per Cycle
system.switch_cpus_1.ipc_total               1.562854                       # IPC: Total IPC of All Threads
system.switch_cpus_1.int_regfile_reads      145521474                       # number of integer regfile reads
system.switch_cpus_1.int_regfile_writes      23580145                       # number of integer regfile writes
system.switch_cpus_1.fp_regfile_reads       163402361                       # number of floating regfile reads
system.switch_cpus_1.fp_regfile_writes      138858601                       # number of floating regfile writes
system.tol3bus.snoop_filter.tot_requests      7960085                       # Total number of requests made to the snoop filter.
system.tol3bus.snoop_filter.hit_single_requests      3978117                       # Number of requests hitting in the snoop filter with a single holder of the requested data.
system.tol3bus.snoop_filter.hit_multi_requests            0                       # Number of requests hitting in the snoop filter with multiple (>1) holders of the requested data.
system.tol3bus.snoop_filter.tot_snoops         210223                       # Total number of snoops made to the snoop filter.
system.tol3bus.snoop_filter.hit_single_snoops       210223                       # Number of snoops hitting in the snoop filter with a single holder of the requested data.
system.tol3bus.snoop_filter.hit_multi_snoops            0                       # Number of snoops hitting in the snoop filter with multiple (>1) holders of the requested data.
system.tol3bus.pwrStateResidencyTicks::UNDEFINED 34795521865449                       # Cumulative time (in ticks) in various power states
system.tol3bus.trans_dist::ReadResp           2827127                       # Transaction distribution
system.tol3bus.trans_dist::WritebackDirty      2582540                       # Transaction distribution
system.tol3bus.trans_dist::CleanEvict         4560022                       # Transaction distribution
system.tol3bus.trans_dist::ReadExReq          1154841                       # Transaction distribution
system.tol3bus.trans_dist::ReadExResp         1154841                       # Transaction distribution
system.tol3bus.trans_dist::ReadSharedReq      2827127                       # Transaction distribution
system.tol3bus.pkt_count_system.cpu.l2.mem_side::system.l3.cpu_side     11942053                       # Packet count per connected master and slave (bytes)
system.tol3bus.pkt_size_system.cpu.l2.mem_side::system.l3.cpu_side    350211712                       # Cumulative packet size per connected master and slave (bytes)
system.tol3bus.snoops                         3164445                       # Total snoops (count)
system.tol3bus.snoopTraffic                  69916800                       # Total snoop traffic (bytes)
system.tol3bus.snoop_fanout::samples          7146413                       # Request fanout histogram
system.tol3bus.snoop_fanout::mean            0.029417                       # Request fanout histogram
system.tol3bus.snoop_fanout::stdev           0.168971                       # Request fanout histogram
system.tol3bus.snoop_fanout::underflows             0      0.00%      0.00% # Request fanout histogram
system.tol3bus.snoop_fanout::0                6936190     97.06%     97.06% # Request fanout histogram
system.tol3bus.snoop_fanout::1                 210223      2.94%    100.00% # Request fanout histogram
system.tol3bus.snoop_fanout::overflows              0      0.00%    100.00% # Request fanout histogram
system.tol3bus.snoop_fanout::min_value              0                       # Request fanout histogram
system.tol3bus.snoop_fanout::max_value              1                       # Request fanout histogram
system.tol3bus.snoop_fanout::total            7146413                       # Request fanout histogram
system.tol3bus.reqLayer0.occupancy         3146908275                       # Layer occupancy (ticks)
system.tol3bus.reqLayer0.utilization              0.2                       # Layer utilization (%)
system.tol3bus.respLayer0.occupancy        2651990688                       # Layer occupancy (ticks)
system.tol3bus.respLayer0.utilization             0.2                       # Layer utilization (%)

---------- End Simulation Statistics   ----------
