
---------- Begin Simulation Statistics ----------
sim_seconds                                  4.976971                       # Number of seconds simulated
sim_ticks                                4976970501213                       # Number of ticks simulated
final_tick                               24962071861080                       # Number of ticks from beginning of simulation (restored from checkpoints and never reset)
sim_freq                                 1000000000000                       # Frequency of simulated ticks
host_inst_rate                                 111763                       # Simulator instruction rate (inst/s)
host_op_rate                                   111763                       # Simulator op (including micro ops) rate (op/s)
host_tick_rate                              463533615                       # Simulator tick rate (ticks/s)
host_mem_usage                                2453664                       # Number of bytes of host memory used
host_seconds                                 10737.02                       # Real time elapsed on the host
sim_insts                                  1200000007                       # Number of instructions simulated
sim_ops                                    1200000007                       # Number of ops (including micro ops) simulated
system.voltage_domain.voltage                       1                       # Voltage in Volts
system.clk_domain.clock                          1000                       # Clock period in ticks
system.mem_ctrls0.pwrStateResidencyTicks::UNDEFINED 24962071861080                       # Cumulative time (in ticks) in various power states
system.mem_ctrls0.bytes_read::cpu.inst             64                       # Number of bytes read from this memory
system.mem_ctrls0.bytes_read::cpu.data             64                       # Number of bytes read from this memory
system.mem_ctrls0.bytes_read::switch_cpus.inst         1152                       # Number of bytes read from this memory
system.mem_ctrls0.bytes_read::switch_cpus.data    950024000                       # Number of bytes read from this memory
system.mem_ctrls0.bytes_read::switch_cpus_1.data    193945216                       # Number of bytes read from this memory
system.mem_ctrls0.bytes_read::total        1143970496                       # Number of bytes read from this memory
system.mem_ctrls0.bytes_inst_read::cpu.inst           64                       # Number of instructions bytes read from this memory
system.mem_ctrls0.bytes_inst_read::switch_cpus.inst         1152                       # Number of instructions bytes read from this memory
system.mem_ctrls0.bytes_inst_read::total         1216                       # Number of instructions bytes read from this memory
system.mem_ctrls0.bytes_written::writebacks    837235072                       # Number of bytes written to this memory
system.mem_ctrls0.bytes_written::total      837235072                       # Number of bytes written to this memory
system.mem_ctrls0.num_reads::cpu.inst               1                       # Number of read requests responded to by this memory
system.mem_ctrls0.num_reads::cpu.data               1                       # Number of read requests responded to by this memory
system.mem_ctrls0.num_reads::switch_cpus.inst           18                       # Number of read requests responded to by this memory
system.mem_ctrls0.num_reads::switch_cpus.data     14844125                       # Number of read requests responded to by this memory
system.mem_ctrls0.num_reads::switch_cpus_1.data      3030394                       # Number of read requests responded to by this memory
system.mem_ctrls0.num_reads::total           17874539                       # Number of read requests responded to by this memory
system.mem_ctrls0.num_writes::writebacks     13081798                       # Number of write requests responded to by this memory
system.mem_ctrls0.num_writes::total          13081798                       # Number of write requests responded to by this memory
system.mem_ctrls0.bw_read::cpu.inst                13                       # Total read bandwidth from this memory (bytes/s)
system.mem_ctrls0.bw_read::cpu.data                13                       # Total read bandwidth from this memory (bytes/s)
system.mem_ctrls0.bw_read::switch_cpus.inst          231                       # Total read bandwidth from this memory (bytes/s)
system.mem_ctrls0.bw_read::switch_cpus.data    190883993                       # Total read bandwidth from this memory (bytes/s)
system.mem_ctrls0.bw_read::switch_cpus_1.data     38968528                       # Total read bandwidth from this memory (bytes/s)
system.mem_ctrls0.bw_read::total            229852778                       # Total read bandwidth from this memory (bytes/s)
system.mem_ctrls0.bw_inst_read::cpu.inst           13                       # Instruction read bandwidth from this memory (bytes/s)
system.mem_ctrls0.bw_inst_read::switch_cpus.inst          231                       # Instruction read bandwidth from this memory (bytes/s)
system.mem_ctrls0.bw_inst_read::total             244                       # Instruction read bandwidth from this memory (bytes/s)
system.mem_ctrls0.bw_write::writebacks      168221827                       # Write bandwidth from this memory (bytes/s)
system.mem_ctrls0.bw_write::total           168221827                       # Write bandwidth from this memory (bytes/s)
system.mem_ctrls0.bw_total::writebacks      168221827                       # Total bandwidth to/from this memory (bytes/s)
system.mem_ctrls0.bw_total::cpu.inst               13                       # Total bandwidth to/from this memory (bytes/s)
system.mem_ctrls0.bw_total::cpu.data               13                       # Total bandwidth to/from this memory (bytes/s)
system.mem_ctrls0.bw_total::switch_cpus.inst          231                       # Total bandwidth to/from this memory (bytes/s)
system.mem_ctrls0.bw_total::switch_cpus.data    190883993                       # Total bandwidth to/from this memory (bytes/s)
system.mem_ctrls0.bw_total::switch_cpus_1.data     38968528                       # Total bandwidth to/from this memory (bytes/s)
system.mem_ctrls0.bw_total::total           398074605                       # Total bandwidth to/from this memory (bytes/s)
system.mem_ctrls0.readReqs                   17874540                       # Number of read requests accepted
system.mem_ctrls0.writeReqs                  13081798                       # Number of write requests accepted
system.mem_ctrls0.readBursts                 17874540                       # Number of DRAM read bursts, including those serviced by the write queue
system.mem_ctrls0.writeBursts                13081798                       # Number of DRAM write bursts, including those merged in the write queue
system.mem_ctrls0.bytesReadDRAM            1143970496                       # Total number of bytes read from DRAM
system.mem_ctrls0.bytesReadWrQ                      0                       # Total number of bytes read from write queue
system.mem_ctrls0.bytesWritten              837233472                       # Total number of bytes written to DRAM
system.mem_ctrls0.bytesReadSys             1143970560                       # Total read bytes from the system interface side
system.mem_ctrls0.bytesWrittenSys           837235072                       # Total written bytes from the system interface side
system.mem_ctrls0.servicedByWrQ                     0                       # Number of DRAM read bursts serviced by the write queue
system.mem_ctrls0.mergedWrBursts                    0                       # Number of DRAM write bursts merged with an existing one
system.mem_ctrls0.neitherReadNorWriteReqs            0                       # Number of requests that are neither read nor write
system.mem_ctrls0.perBankRdBursts::0          1117325                       # Per bank write bursts
system.mem_ctrls0.perBankRdBursts::1          1109416                       # Per bank write bursts
system.mem_ctrls0.perBankRdBursts::2          1124274                       # Per bank write bursts
system.mem_ctrls0.perBankRdBursts::3          1123018                       # Per bank write bursts
system.mem_ctrls0.perBankRdBursts::4          1122709                       # Per bank write bursts
system.mem_ctrls0.perBankRdBursts::5          1115002                       # Per bank write bursts
system.mem_ctrls0.perBankRdBursts::6          1119332                       # Per bank write bursts
system.mem_ctrls0.perBankRdBursts::7          1131155                       # Per bank write bursts
system.mem_ctrls0.perBankRdBursts::8          1124529                       # Per bank write bursts
system.mem_ctrls0.perBankRdBursts::9          1118017                       # Per bank write bursts
system.mem_ctrls0.perBankRdBursts::10         1111454                       # Per bank write bursts
system.mem_ctrls0.perBankRdBursts::11         1107554                       # Per bank write bursts
system.mem_ctrls0.perBankRdBursts::12         1105021                       # Per bank write bursts
system.mem_ctrls0.perBankRdBursts::13         1117176                       # Per bank write bursts
system.mem_ctrls0.perBankRdBursts::14         1110407                       # Per bank write bursts
system.mem_ctrls0.perBankRdBursts::15         1118150                       # Per bank write bursts
system.mem_ctrls0.perBankWrBursts::0           818165                       # Per bank write bursts
system.mem_ctrls0.perBankWrBursts::1           810161                       # Per bank write bursts
system.mem_ctrls0.perBankWrBursts::2           824894                       # Per bank write bursts
system.mem_ctrls0.perBankWrBursts::3           823524                       # Per bank write bursts
system.mem_ctrls0.perBankWrBursts::4           823169                       # Per bank write bursts
system.mem_ctrls0.perBankWrBursts::5           815235                       # Per bank write bursts
system.mem_ctrls0.perBankWrBursts::6           819488                       # Per bank write bursts
system.mem_ctrls0.perBankWrBursts::7           831291                       # Per bank write bursts
system.mem_ctrls0.perBankWrBursts::8           824617                       # Per bank write bursts
system.mem_ctrls0.perBankWrBursts::9           818143                       # Per bank write bursts
system.mem_ctrls0.perBankWrBursts::10          811746                       # Per bank write bursts
system.mem_ctrls0.perBankWrBursts::11          807954                       # Per bank write bursts
system.mem_ctrls0.perBankWrBursts::12          805246                       # Per bank write bursts
system.mem_ctrls0.perBankWrBursts::13          817942                       # Per bank write bursts
system.mem_ctrls0.perBankWrBursts::14          811181                       # Per bank write bursts
system.mem_ctrls0.perBankWrBursts::15          819017                       # Per bank write bursts
system.mem_ctrls0.numRdRetry                        0                       # Number of times read queue was full causing retry
system.mem_ctrls0.numWrRetry                        0                       # Number of times write queue was full causing retry
system.mem_ctrls0.totGap                 4976970362685                       # Total gap between requests
system.mem_ctrls0.readPktSize::0                    0                       # Read request sizes (log2)
system.mem_ctrls0.readPktSize::1                    0                       # Read request sizes (log2)
system.mem_ctrls0.readPktSize::2                    0                       # Read request sizes (log2)
system.mem_ctrls0.readPktSize::3                    0                       # Read request sizes (log2)
system.mem_ctrls0.readPktSize::4                    0                       # Read request sizes (log2)
system.mem_ctrls0.readPktSize::5                    0                       # Read request sizes (log2)
system.mem_ctrls0.readPktSize::6             17874540                       # Read request sizes (log2)
system.mem_ctrls0.writePktSize::0                   0                       # Write request sizes (log2)
system.mem_ctrls0.writePktSize::1                   0                       # Write request sizes (log2)
system.mem_ctrls0.writePktSize::2                   0                       # Write request sizes (log2)
system.mem_ctrls0.writePktSize::3                   0                       # Write request sizes (log2)
system.mem_ctrls0.writePktSize::4                   0                       # Write request sizes (log2)
system.mem_ctrls0.writePktSize::5                   0                       # Write request sizes (log2)
system.mem_ctrls0.writePktSize::6            13081798                       # Write request sizes (log2)
system.mem_ctrls0.rdQLenPdf::0               16697486                       # What read queue length does an incoming req see
system.mem_ctrls0.rdQLenPdf::1                 920821                       # What read queue length does an incoming req see
system.mem_ctrls0.rdQLenPdf::2                 240695                       # What read queue length does an incoming req see
system.mem_ctrls0.rdQLenPdf::3                  15538                       # What read queue length does an incoming req see
system.mem_ctrls0.rdQLenPdf::4                      0                       # What read queue length does an incoming req see
system.mem_ctrls0.rdQLenPdf::5                      0                       # What read queue length does an incoming req see
system.mem_ctrls0.rdQLenPdf::6                      0                       # What read queue length does an incoming req see
system.mem_ctrls0.rdQLenPdf::7                      0                       # What read queue length does an incoming req see
system.mem_ctrls0.rdQLenPdf::8                      0                       # What read queue length does an incoming req see
system.mem_ctrls0.rdQLenPdf::9                      0                       # What read queue length does an incoming req see
system.mem_ctrls0.rdQLenPdf::10                     0                       # What read queue length does an incoming req see
system.mem_ctrls0.rdQLenPdf::11                     0                       # What read queue length does an incoming req see
system.mem_ctrls0.rdQLenPdf::12                     0                       # What read queue length does an incoming req see
system.mem_ctrls0.rdQLenPdf::13                     0                       # What read queue length does an incoming req see
system.mem_ctrls0.rdQLenPdf::14                     0                       # What read queue length does an incoming req see
system.mem_ctrls0.rdQLenPdf::15                     0                       # What read queue length does an incoming req see
system.mem_ctrls0.rdQLenPdf::16                     0                       # What read queue length does an incoming req see
system.mem_ctrls0.rdQLenPdf::17                     0                       # What read queue length does an incoming req see
system.mem_ctrls0.rdQLenPdf::18                     0                       # What read queue length does an incoming req see
system.mem_ctrls0.rdQLenPdf::19                     0                       # What read queue length does an incoming req see
system.mem_ctrls0.rdQLenPdf::20                     0                       # What read queue length does an incoming req see
system.mem_ctrls0.rdQLenPdf::21                     0                       # What read queue length does an incoming req see
system.mem_ctrls0.rdQLenPdf::22                     0                       # What read queue length does an incoming req see
system.mem_ctrls0.rdQLenPdf::23                     0                       # What read queue length does an incoming req see
system.mem_ctrls0.rdQLenPdf::24                     0                       # What read queue length does an incoming req see
system.mem_ctrls0.rdQLenPdf::25                     0                       # What read queue length does an incoming req see
system.mem_ctrls0.rdQLenPdf::26                     0                       # What read queue length does an incoming req see
system.mem_ctrls0.rdQLenPdf::27                     0                       # What read queue length does an incoming req see
system.mem_ctrls0.rdQLenPdf::28                     0                       # What read queue length does an incoming req see
system.mem_ctrls0.rdQLenPdf::29                     0                       # What read queue length does an incoming req see
system.mem_ctrls0.rdQLenPdf::30                     0                       # What read queue length does an incoming req see
system.mem_ctrls0.rdQLenPdf::31                     0                       # What read queue length does an incoming req see
system.mem_ctrls0.wrQLenPdf::0                      2                       # What write queue length does an incoming req see
system.mem_ctrls0.wrQLenPdf::1                      2                       # What write queue length does an incoming req see
system.mem_ctrls0.wrQLenPdf::2                      2                       # What write queue length does an incoming req see
system.mem_ctrls0.wrQLenPdf::3                      2                       # What write queue length does an incoming req see
system.mem_ctrls0.wrQLenPdf::4                      2                       # What write queue length does an incoming req see
system.mem_ctrls0.wrQLenPdf::5                      2                       # What write queue length does an incoming req see
system.mem_ctrls0.wrQLenPdf::6                      2                       # What write queue length does an incoming req see
system.mem_ctrls0.wrQLenPdf::7                      2                       # What write queue length does an incoming req see
system.mem_ctrls0.wrQLenPdf::8                      2                       # What write queue length does an incoming req see
system.mem_ctrls0.wrQLenPdf::9                      2                       # What write queue length does an incoming req see
system.mem_ctrls0.wrQLenPdf::10                     2                       # What write queue length does an incoming req see
system.mem_ctrls0.wrQLenPdf::11                     2                       # What write queue length does an incoming req see
system.mem_ctrls0.wrQLenPdf::12                     2                       # What write queue length does an incoming req see
system.mem_ctrls0.wrQLenPdf::13                     2                       # What write queue length does an incoming req see
system.mem_ctrls0.wrQLenPdf::14                     2                       # What write queue length does an incoming req see
system.mem_ctrls0.wrQLenPdf::15                381757                       # What write queue length does an incoming req see
system.mem_ctrls0.wrQLenPdf::16                405468                       # What write queue length does an incoming req see
system.mem_ctrls0.wrQLenPdf::17                692342                       # What write queue length does an incoming req see
system.mem_ctrls0.wrQLenPdf::18                757051                       # What write queue length does an incoming req see
system.mem_ctrls0.wrQLenPdf::19                770273                       # What write queue length does an incoming req see
system.mem_ctrls0.wrQLenPdf::20                772335                       # What write queue length does an incoming req see
system.mem_ctrls0.wrQLenPdf::21                772762                       # What write queue length does an incoming req see
system.mem_ctrls0.wrQLenPdf::22                784189                       # What write queue length does an incoming req see
system.mem_ctrls0.wrQLenPdf::23                783636                       # What write queue length does an incoming req see
system.mem_ctrls0.wrQLenPdf::24                775362                       # What write queue length does an incoming req see
system.mem_ctrls0.wrQLenPdf::25                782881                       # What write queue length does an incoming req see
system.mem_ctrls0.wrQLenPdf::26                776837                       # What write queue length does an incoming req see
system.mem_ctrls0.wrQLenPdf::27                772971                       # What write queue length does an incoming req see
system.mem_ctrls0.wrQLenPdf::28                783430                       # What write queue length does an incoming req see
system.mem_ctrls0.wrQLenPdf::29                771927                       # What write queue length does an incoming req see
system.mem_ctrls0.wrQLenPdf::30                766841                       # What write queue length does an incoming req see
system.mem_ctrls0.wrQLenPdf::31                764832                       # What write queue length does an incoming req see
system.mem_ctrls0.wrQLenPdf::32                764574                       # What write queue length does an incoming req see
system.mem_ctrls0.wrQLenPdf::33                  1690                       # What write queue length does an incoming req see
system.mem_ctrls0.wrQLenPdf::34                   468                       # What write queue length does an incoming req see
system.mem_ctrls0.wrQLenPdf::35                   113                       # What write queue length does an incoming req see
system.mem_ctrls0.wrQLenPdf::36                    22                       # What write queue length does an incoming req see
system.mem_ctrls0.wrQLenPdf::37                     4                       # What write queue length does an incoming req see
system.mem_ctrls0.wrQLenPdf::38                     3                       # What write queue length does an incoming req see
system.mem_ctrls0.wrQLenPdf::39                     0                       # What write queue length does an incoming req see
system.mem_ctrls0.wrQLenPdf::40                     0                       # What write queue length does an incoming req see
system.mem_ctrls0.wrQLenPdf::41                     0                       # What write queue length does an incoming req see
system.mem_ctrls0.wrQLenPdf::42                     0                       # What write queue length does an incoming req see
system.mem_ctrls0.wrQLenPdf::43                     0                       # What write queue length does an incoming req see
system.mem_ctrls0.wrQLenPdf::44                     0                       # What write queue length does an incoming req see
system.mem_ctrls0.wrQLenPdf::45                     0                       # What write queue length does an incoming req see
system.mem_ctrls0.wrQLenPdf::46                     0                       # What write queue length does an incoming req see
system.mem_ctrls0.wrQLenPdf::47                     0                       # What write queue length does an incoming req see
system.mem_ctrls0.wrQLenPdf::48                     0                       # What write queue length does an incoming req see
system.mem_ctrls0.wrQLenPdf::49                     0                       # What write queue length does an incoming req see
system.mem_ctrls0.wrQLenPdf::50                     0                       # What write queue length does an incoming req see
system.mem_ctrls0.wrQLenPdf::51                     0                       # What write queue length does an incoming req see
system.mem_ctrls0.wrQLenPdf::52                     0                       # What write queue length does an incoming req see
system.mem_ctrls0.wrQLenPdf::53                     0                       # What write queue length does an incoming req see
system.mem_ctrls0.wrQLenPdf::54                     0                       # What write queue length does an incoming req see
system.mem_ctrls0.wrQLenPdf::55                     0                       # What write queue length does an incoming req see
system.mem_ctrls0.wrQLenPdf::56                     0                       # What write queue length does an incoming req see
system.mem_ctrls0.wrQLenPdf::57                     0                       # What write queue length does an incoming req see
system.mem_ctrls0.wrQLenPdf::58                     0                       # What write queue length does an incoming req see
system.mem_ctrls0.wrQLenPdf::59                     0                       # What write queue length does an incoming req see
system.mem_ctrls0.wrQLenPdf::60                     0                       # What write queue length does an incoming req see
system.mem_ctrls0.wrQLenPdf::61                     0                       # What write queue length does an incoming req see
system.mem_ctrls0.wrQLenPdf::62                     0                       # What write queue length does an incoming req see
system.mem_ctrls0.wrQLenPdf::63                     0                       # What write queue length does an incoming req see
system.mem_ctrls0.bytesPerActivate::samples     14114711                       # Bytes accessed per row activation
system.mem_ctrls0.bytesPerActivate::mean   140.364323                       # Bytes accessed per row activation
system.mem_ctrls0.bytesPerActivate::gmean   114.996257                       # Bytes accessed per row activation
system.mem_ctrls0.bytesPerActivate::stdev   104.157810                       # Bytes accessed per row activation
system.mem_ctrls0.bytesPerActivate::0-127      6165604     43.68%     43.68% # Bytes accessed per row activation
system.mem_ctrls0.bytesPerActivate::128-255      5834863     41.34%     85.02% # Bytes accessed per row activation
system.mem_ctrls0.bytesPerActivate::256-383      1515749     10.74%     95.76% # Bytes accessed per row activation
system.mem_ctrls0.bytesPerActivate::384-511       388023      2.75%     98.51% # Bytes accessed per row activation
system.mem_ctrls0.bytesPerActivate::512-639       117235      0.83%     99.34% # Bytes accessed per row activation
system.mem_ctrls0.bytesPerActivate::640-767        55134      0.39%     99.73% # Bytes accessed per row activation
system.mem_ctrls0.bytesPerActivate::768-895        23512      0.17%     99.90% # Bytes accessed per row activation
system.mem_ctrls0.bytesPerActivate::896-1023         8374      0.06%     99.96% # Bytes accessed per row activation
system.mem_ctrls0.bytesPerActivate::1024-1151         6217      0.04%    100.00% # Bytes accessed per row activation
system.mem_ctrls0.bytesPerActivate::total     14114711                       # Bytes accessed per row activation
system.mem_ctrls0.rdPerTurnAround::samples       764180                       # Reads before turning the bus around for writes
system.mem_ctrls0.rdPerTurnAround::mean     23.390483                       # Reads before turning the bus around for writes
system.mem_ctrls0.rdPerTurnAround::gmean    22.812883                       # Reads before turning the bus around for writes
system.mem_ctrls0.rdPerTurnAround::stdev    38.031338                       # Reads before turning the bus around for writes
system.mem_ctrls0.rdPerTurnAround::0-2047       764179    100.00%    100.00% # Reads before turning the bus around for writes
system.mem_ctrls0.rdPerTurnAround::32768-34815            1      0.00%    100.00% # Reads before turning the bus around for writes
system.mem_ctrls0.rdPerTurnAround::total       764180                       # Reads before turning the bus around for writes
system.mem_ctrls0.wrPerTurnAround::samples       764179                       # Writes before turning the bus around for reads
system.mem_ctrls0.wrPerTurnAround::mean     17.118718                       # Writes before turning the bus around for reads
system.mem_ctrls0.wrPerTurnAround::gmean    17.082829                       # Writes before turning the bus around for reads
system.mem_ctrls0.wrPerTurnAround::stdev     1.113358                       # Writes before turning the bus around for reads
system.mem_ctrls0.wrPerTurnAround::16          358977     46.98%     46.98% # Writes before turning the bus around for reads
system.mem_ctrls0.wrPerTurnAround::17           19384      2.54%     49.51% # Writes before turning the bus around for reads
system.mem_ctrls0.wrPerTurnAround::18          331334     43.36%     92.87% # Writes before turning the bus around for reads
system.mem_ctrls0.wrPerTurnAround::19           46239      6.05%     98.92% # Writes before turning the bus around for reads
system.mem_ctrls0.wrPerTurnAround::20            7288      0.95%     99.87% # Writes before turning the bus around for reads
system.mem_ctrls0.wrPerTurnAround::21             799      0.10%     99.98% # Writes before turning the bus around for reads
system.mem_ctrls0.wrPerTurnAround::22             129      0.02%    100.00% # Writes before turning the bus around for reads
system.mem_ctrls0.wrPerTurnAround::23              23      0.00%    100.00% # Writes before turning the bus around for reads
system.mem_ctrls0.wrPerTurnAround::24               4      0.00%    100.00% # Writes before turning the bus around for reads
system.mem_ctrls0.wrPerTurnAround::25               2      0.00%    100.00% # Writes before turning the bus around for reads
system.mem_ctrls0.wrPerTurnAround::total       764179                       # Writes before turning the bus around for reads
system.mem_ctrls0.totQLat                445562506708                       # Total ticks spent queuing
system.mem_ctrls0.totMemAccLat           780710112958                       # Total ticks spent from burst creation until serviced by the DRAM
system.mem_ctrls0.totBusLat               89372695000                       # Total ticks spent in databus transfers
system.mem_ctrls0.avgQLat                    24927.22                       # Average queueing delay per DRAM burst
system.mem_ctrls0.avgBusLat                   5000.00                       # Average bus latency per DRAM burst
system.mem_ctrls0.avgMemAccLat               43677.21                       # Average memory access latency per DRAM burst
system.mem_ctrls0.avgRdBW                      229.85                       # Average DRAM read bandwidth in MiByte/s
system.mem_ctrls0.avgWrBW                      168.22                       # Average achieved write bandwidth in MiByte/s
system.mem_ctrls0.avgRdBWSys                   229.85                       # Average system read bandwidth in MiByte/s
system.mem_ctrls0.avgWrBWSys                   168.22                       # Average system write bandwidth in MiByte/s
system.mem_ctrls0.peakBW                     12800.00                       # Theoretical peak bandwidth in MiByte/s
system.mem_ctrls0.busUtil                        3.11                       # Data bus utilization in percentage
system.mem_ctrls0.busUtilRead                    1.80                       # Data bus utilization in percentage for reads
system.mem_ctrls0.busUtilWrite                   1.31                       # Data bus utilization in percentage for writes
system.mem_ctrls0.avgRdQLen                      1.03                       # Average read queue length when enqueuing
system.mem_ctrls0.avgWrQLen                     24.93                       # Average write queue length when enqueuing
system.mem_ctrls0.readRowHits                 8526532                       # Number of row buffer hits during reads
system.mem_ctrls0.writeRowHits                8315058                       # Number of row buffer hits during writes
system.mem_ctrls0.readRowHitRate                47.70                       # Row buffer hit rate for reads
system.mem_ctrls0.writeRowHitRate               63.56                       # Row buffer hit rate for writes
system.mem_ctrls0.avgGap                    160773.87                       # Average gap between requests
system.mem_ctrls0.pageHitRate                   54.40                       # Row buffer hit rate, read and write combined
system.mem_ctrls0_0.actEnergy             50546766060                       # Energy for activate commands per rank (pJ)
system.mem_ctrls0_0.preEnergy             26866224330                       # Energy for precharge commands per rank (pJ)
system.mem_ctrls0_0.readEnergy            63990329340                       # Energy for read commands per rank (pJ)
system.mem_ctrls0_0.writeEnergy           34274123280                       # Energy for write commands per rank (pJ)
system.mem_ctrls0_0.refreshEnergy        401735465040.000061                       # Energy for refresh commands per rank (pJ)
system.mem_ctrls0_0.actBackEnergy        517781095020                       # Energy for active background per rank (pJ)
system.mem_ctrls0_0.preBackEnergy         14626765920                       # Energy for precharge background per rank (pJ)
system.mem_ctrls0_0.actPowerDownEnergy   1374203009610                       # Energy for active power-down per rank (pJ)
system.mem_ctrls0_0.prePowerDownEnergy   275845077120                       # Energy for precharge power-down per rank (pJ)
system.mem_ctrls0_0.selfRefreshEnergy     31179300990                       # Energy for self refresh per rank (pJ)
system.mem_ctrls0_0.totalEnergy          2791221423900                       # Total energy per rank (pJ)
system.mem_ctrls0_0.averagePower           560.827385                       # Core power per rank (mW)
system.mem_ctrls0_0.totalIdleTime        3803003785209                       # Total Idle time Per DRAM Rank
system.mem_ctrls0_0.memoryStateTime::IDLE  18469373874                       # Time in different power states
system.mem_ctrls0_0.memoryStateTime::REF 170102414000                       # Time in different power states
system.mem_ctrls0_0.memoryStateTime::SREF  71060107928                       # Time in different power states
system.mem_ctrls0_0.memoryStateTime::PRE_PDN 718345382324                       # Time in different power states
system.mem_ctrls0_0.memoryStateTime::ACT 985394928130                       # Time in different power states
system.mem_ctrls0_0.memoryStateTime::ACT_PDN 3013598294957                       # Time in different power states
system.mem_ctrls0_1.actEnergy             50232349020                       # Energy for activate commands per rank (pJ)
system.mem_ctrls0_1.preEnergy             26699100120                       # Energy for precharge commands per rank (pJ)
system.mem_ctrls0_1.readEnergy            63633879120                       # Energy for read commands per rank (pJ)
system.mem_ctrls0_1.writeEnergy           34012705680                       # Energy for write commands per rank (pJ)
system.mem_ctrls0_1.refreshEnergy        402227177040.000061                       # Energy for refresh commands per rank (pJ)
system.mem_ctrls0_1.actBackEnergy        516293209200                       # Energy for active background per rank (pJ)
system.mem_ctrls0_1.preBackEnergy         14889671520                       # Energy for precharge background per rank (pJ)
system.mem_ctrls0_1.actPowerDownEnergy   1369799858220                       # Energy for active power-down per rank (pJ)
system.mem_ctrls0_1.prePowerDownEnergy   278772770880                       # Energy for precharge power-down per rank (pJ)
system.mem_ctrls0_1.selfRefreshEnergy     33115601850                       # Energy for self refresh per rank (pJ)
system.mem_ctrls0_1.totalEnergy          2789870114280                       # Total energy per rank (pJ)
system.mem_ctrls0_1.averagePower           560.555872                       # Core power per rank (mW)
system.mem_ctrls0_1.totalIdleTime        3805540860590                       # Total Idle time Per DRAM Rank
system.mem_ctrls0_1.memoryStateTime::IDLE  19210860760                       # Time in different power states
system.mem_ctrls0_1.memoryStateTime::REF 170320314000                       # Time in different power states
system.mem_ctrls0_1.memoryStateTime::SREF  75624577351                       # Time in different power states
system.mem_ctrls0_1.memoryStateTime::PRE_PDN 725970070403                       # Time in different power states
system.mem_ctrls0_1.memoryStateTime::ACT 981898465863                       # Time in different power states
system.mem_ctrls0_1.memoryStateTime::ACT_PDN 3003946212836                       # Time in different power states
system.mem_ctrls1.pwrStateResidencyTicks::UNDEFINED 24962071861080                       # Cumulative time (in ticks) in various power states
system.mem_ctrls1.bytes_read::cpu.inst            128                       # Number of bytes read from this memory
system.mem_ctrls1.bytes_read::cpu.data            128                       # Number of bytes read from this memory
system.mem_ctrls1.bytes_read::switch_cpus.inst          896                       # Number of bytes read from this memory
system.mem_ctrls1.bytes_read::switch_cpus.data    950023616                       # Number of bytes read from this memory
system.mem_ctrls1.bytes_read::switch_cpus_1.data    193925504                       # Number of bytes read from this memory
system.mem_ctrls1.bytes_read::total        1143950272                       # Number of bytes read from this memory
system.mem_ctrls1.bytes_inst_read::cpu.inst          128                       # Number of instructions bytes read from this memory
system.mem_ctrls1.bytes_inst_read::switch_cpus.inst          896                       # Number of instructions bytes read from this memory
system.mem_ctrls1.bytes_inst_read::total         1024                       # Number of instructions bytes read from this memory
system.mem_ctrls1.bytes_written::writebacks    837233408                       # Number of bytes written to this memory
system.mem_ctrls1.bytes_written::total      837233408                       # Number of bytes written to this memory
system.mem_ctrls1.num_reads::cpu.inst               2                       # Number of read requests responded to by this memory
system.mem_ctrls1.num_reads::cpu.data               2                       # Number of read requests responded to by this memory
system.mem_ctrls1.num_reads::switch_cpus.inst           14                       # Number of read requests responded to by this memory
system.mem_ctrls1.num_reads::switch_cpus.data     14844119                       # Number of read requests responded to by this memory
system.mem_ctrls1.num_reads::switch_cpus_1.data      3030086                       # Number of read requests responded to by this memory
system.mem_ctrls1.num_reads::total           17874223                       # Number of read requests responded to by this memory
system.mem_ctrls1.num_writes::writebacks     13081772                       # Number of write requests responded to by this memory
system.mem_ctrls1.num_writes::total          13081772                       # Number of write requests responded to by this memory
system.mem_ctrls1.bw_read::cpu.inst                26                       # Total read bandwidth from this memory (bytes/s)
system.mem_ctrls1.bw_read::cpu.data                26                       # Total read bandwidth from this memory (bytes/s)
system.mem_ctrls1.bw_read::switch_cpus.inst          180                       # Total read bandwidth from this memory (bytes/s)
system.mem_ctrls1.bw_read::switch_cpus.data    190883915                       # Total read bandwidth from this memory (bytes/s)
system.mem_ctrls1.bw_read::switch_cpus_1.data     38964568                       # Total read bandwidth from this memory (bytes/s)
system.mem_ctrls1.bw_read::total            229848715                       # Total read bandwidth from this memory (bytes/s)
system.mem_ctrls1.bw_inst_read::cpu.inst           26                       # Instruction read bandwidth from this memory (bytes/s)
system.mem_ctrls1.bw_inst_read::switch_cpus.inst          180                       # Instruction read bandwidth from this memory (bytes/s)
system.mem_ctrls1.bw_inst_read::total             206                       # Instruction read bandwidth from this memory (bytes/s)
system.mem_ctrls1.bw_write::writebacks      168221493                       # Write bandwidth from this memory (bytes/s)
system.mem_ctrls1.bw_write::total           168221493                       # Write bandwidth from this memory (bytes/s)
system.mem_ctrls1.bw_total::writebacks      168221493                       # Total bandwidth to/from this memory (bytes/s)
system.mem_ctrls1.bw_total::cpu.inst               26                       # Total bandwidth to/from this memory (bytes/s)
system.mem_ctrls1.bw_total::cpu.data               26                       # Total bandwidth to/from this memory (bytes/s)
system.mem_ctrls1.bw_total::switch_cpus.inst          180                       # Total bandwidth to/from this memory (bytes/s)
system.mem_ctrls1.bw_total::switch_cpus.data    190883915                       # Total bandwidth to/from this memory (bytes/s)
system.mem_ctrls1.bw_total::switch_cpus_1.data     38964568                       # Total bandwidth to/from this memory (bytes/s)
system.mem_ctrls1.bw_total::total           398070207                       # Total bandwidth to/from this memory (bytes/s)
system.mem_ctrls1.readReqs                   17874223                       # Number of read requests accepted
system.mem_ctrls1.writeReqs                  13081772                       # Number of write requests accepted
system.mem_ctrls1.readBursts                 17874223                       # Number of DRAM read bursts, including those serviced by the write queue
system.mem_ctrls1.writeBursts                13081772                       # Number of DRAM write bursts, including those merged in the write queue
system.mem_ctrls1.bytesReadDRAM            1143950272                       # Total number of bytes read from DRAM
system.mem_ctrls1.bytesReadWrQ                      0                       # Total number of bytes read from write queue
system.mem_ctrls1.bytesWritten              837232256                       # Total number of bytes written to DRAM
system.mem_ctrls1.bytesReadSys             1143950272                       # Total read bytes from the system interface side
system.mem_ctrls1.bytesWrittenSys           837233408                       # Total written bytes from the system interface side
system.mem_ctrls1.servicedByWrQ                     0                       # Number of DRAM read bursts serviced by the write queue
system.mem_ctrls1.mergedWrBursts                    0                       # Number of DRAM write bursts merged with an existing one
system.mem_ctrls1.neitherReadNorWriteReqs            0                       # Number of requests that are neither read nor write
system.mem_ctrls1.perBankRdBursts::0          1117359                       # Per bank write bursts
system.mem_ctrls1.perBankRdBursts::1          1109450                       # Per bank write bursts
system.mem_ctrls1.perBankRdBursts::2          1124239                       # Per bank write bursts
system.mem_ctrls1.perBankRdBursts::3          1123057                       # Per bank write bursts
system.mem_ctrls1.perBankRdBursts::4          1122668                       # Per bank write bursts
system.mem_ctrls1.perBankRdBursts::5          1114987                       # Per bank write bursts
system.mem_ctrls1.perBankRdBursts::6          1119337                       # Per bank write bursts
system.mem_ctrls1.perBankRdBursts::7          1131166                       # Per bank write bursts
system.mem_ctrls1.perBankRdBursts::8          1124642                       # Per bank write bursts
system.mem_ctrls1.perBankRdBursts::9          1117906                       # Per bank write bursts
system.mem_ctrls1.perBankRdBursts::10         1111372                       # Per bank write bursts
system.mem_ctrls1.perBankRdBursts::11         1107614                       # Per bank write bursts
system.mem_ctrls1.perBankRdBursts::12         1104830                       # Per bank write bursts
system.mem_ctrls1.perBankRdBursts::13         1117230                       # Per bank write bursts
system.mem_ctrls1.perBankRdBursts::14         1110425                       # Per bank write bursts
system.mem_ctrls1.perBankRdBursts::15         1117941                       # Per bank write bursts
system.mem_ctrls1.perBankWrBursts::0           818188                       # Per bank write bursts
system.mem_ctrls1.perBankWrBursts::1           810208                       # Per bank write bursts
system.mem_ctrls1.perBankWrBursts::2           824870                       # Per bank write bursts
system.mem_ctrls1.perBankWrBursts::3           823584                       # Per bank write bursts
system.mem_ctrls1.perBankWrBursts::4           823112                       # Per bank write bursts
system.mem_ctrls1.perBankWrBursts::5           815218                       # Per bank write bursts
system.mem_ctrls1.perBankWrBursts::6           819493                       # Per bank write bursts
system.mem_ctrls1.perBankWrBursts::7           831307                       # Per bank write bursts
system.mem_ctrls1.perBankWrBursts::8           824752                       # Per bank write bursts
system.mem_ctrls1.perBankWrBursts::9           818029                       # Per bank write bursts
system.mem_ctrls1.perBankWrBursts::10          811655                       # Per bank write bursts
system.mem_ctrls1.perBankWrBursts::11          808029                       # Per bank write bursts
system.mem_ctrls1.perBankWrBursts::12          805283                       # Per bank write bursts
system.mem_ctrls1.perBankWrBursts::13          818002                       # Per bank write bursts
system.mem_ctrls1.perBankWrBursts::14          811208                       # Per bank write bursts
system.mem_ctrls1.perBankWrBursts::15          818816                       # Per bank write bursts
system.mem_ctrls1.numRdRetry                        0                       # Number of times read queue was full causing retry
system.mem_ctrls1.numWrRetry                        0                       # Number of times write queue was full causing retry
system.mem_ctrls1.totGap                 4976970459588                       # Total gap between requests
system.mem_ctrls1.readPktSize::0                    0                       # Read request sizes (log2)
system.mem_ctrls1.readPktSize::1                    0                       # Read request sizes (log2)
system.mem_ctrls1.readPktSize::2                    0                       # Read request sizes (log2)
system.mem_ctrls1.readPktSize::3                    0                       # Read request sizes (log2)
system.mem_ctrls1.readPktSize::4                    0                       # Read request sizes (log2)
system.mem_ctrls1.readPktSize::5                    0                       # Read request sizes (log2)
system.mem_ctrls1.readPktSize::6             17874223                       # Read request sizes (log2)
system.mem_ctrls1.writePktSize::0                   0                       # Write request sizes (log2)
system.mem_ctrls1.writePktSize::1                   0                       # Write request sizes (log2)
system.mem_ctrls1.writePktSize::2                   0                       # Write request sizes (log2)
system.mem_ctrls1.writePktSize::3                   0                       # Write request sizes (log2)
system.mem_ctrls1.writePktSize::4                   0                       # Write request sizes (log2)
system.mem_ctrls1.writePktSize::5                   0                       # Write request sizes (log2)
system.mem_ctrls1.writePktSize::6            13081772                       # Write request sizes (log2)
system.mem_ctrls1.rdQLenPdf::0               16697240                       # What read queue length does an incoming req see
system.mem_ctrls1.rdQLenPdf::1                 922342                       # What read queue length does an incoming req see
system.mem_ctrls1.rdQLenPdf::2                 239234                       # What read queue length does an incoming req see
system.mem_ctrls1.rdQLenPdf::3                  15407                       # What read queue length does an incoming req see
system.mem_ctrls1.rdQLenPdf::4                      0                       # What read queue length does an incoming req see
system.mem_ctrls1.rdQLenPdf::5                      0                       # What read queue length does an incoming req see
system.mem_ctrls1.rdQLenPdf::6                      0                       # What read queue length does an incoming req see
system.mem_ctrls1.rdQLenPdf::7                      0                       # What read queue length does an incoming req see
system.mem_ctrls1.rdQLenPdf::8                      0                       # What read queue length does an incoming req see
system.mem_ctrls1.rdQLenPdf::9                      0                       # What read queue length does an incoming req see
system.mem_ctrls1.rdQLenPdf::10                     0                       # What read queue length does an incoming req see
system.mem_ctrls1.rdQLenPdf::11                     0                       # What read queue length does an incoming req see
system.mem_ctrls1.rdQLenPdf::12                     0                       # What read queue length does an incoming req see
system.mem_ctrls1.rdQLenPdf::13                     0                       # What read queue length does an incoming req see
system.mem_ctrls1.rdQLenPdf::14                     0                       # What read queue length does an incoming req see
system.mem_ctrls1.rdQLenPdf::15                     0                       # What read queue length does an incoming req see
system.mem_ctrls1.rdQLenPdf::16                     0                       # What read queue length does an incoming req see
system.mem_ctrls1.rdQLenPdf::17                     0                       # What read queue length does an incoming req see
system.mem_ctrls1.rdQLenPdf::18                     0                       # What read queue length does an incoming req see
system.mem_ctrls1.rdQLenPdf::19                     0                       # What read queue length does an incoming req see
system.mem_ctrls1.rdQLenPdf::20                     0                       # What read queue length does an incoming req see
system.mem_ctrls1.rdQLenPdf::21                     0                       # What read queue length does an incoming req see
system.mem_ctrls1.rdQLenPdf::22                     0                       # What read queue length does an incoming req see
system.mem_ctrls1.rdQLenPdf::23                     0                       # What read queue length does an incoming req see
system.mem_ctrls1.rdQLenPdf::24                     0                       # What read queue length does an incoming req see
system.mem_ctrls1.rdQLenPdf::25                     0                       # What read queue length does an incoming req see
system.mem_ctrls1.rdQLenPdf::26                     0                       # What read queue length does an incoming req see
system.mem_ctrls1.rdQLenPdf::27                     0                       # What read queue length does an incoming req see
system.mem_ctrls1.rdQLenPdf::28                     0                       # What read queue length does an incoming req see
system.mem_ctrls1.rdQLenPdf::29                     0                       # What read queue length does an incoming req see
system.mem_ctrls1.rdQLenPdf::30                     0                       # What read queue length does an incoming req see
system.mem_ctrls1.rdQLenPdf::31                     0                       # What read queue length does an incoming req see
system.mem_ctrls1.wrQLenPdf::0                      2                       # What write queue length does an incoming req see
system.mem_ctrls1.wrQLenPdf::1                      2                       # What write queue length does an incoming req see
system.mem_ctrls1.wrQLenPdf::2                      2                       # What write queue length does an incoming req see
system.mem_ctrls1.wrQLenPdf::3                      2                       # What write queue length does an incoming req see
system.mem_ctrls1.wrQLenPdf::4                      2                       # What write queue length does an incoming req see
system.mem_ctrls1.wrQLenPdf::5                      2                       # What write queue length does an incoming req see
system.mem_ctrls1.wrQLenPdf::6                      2                       # What write queue length does an incoming req see
system.mem_ctrls1.wrQLenPdf::7                      2                       # What write queue length does an incoming req see
system.mem_ctrls1.wrQLenPdf::8                      2                       # What write queue length does an incoming req see
system.mem_ctrls1.wrQLenPdf::9                      2                       # What write queue length does an incoming req see
system.mem_ctrls1.wrQLenPdf::10                     2                       # What write queue length does an incoming req see
system.mem_ctrls1.wrQLenPdf::11                     2                       # What write queue length does an incoming req see
system.mem_ctrls1.wrQLenPdf::12                     2                       # What write queue length does an incoming req see
system.mem_ctrls1.wrQLenPdf::13                     2                       # What write queue length does an incoming req see
system.mem_ctrls1.wrQLenPdf::14                     2                       # What write queue length does an incoming req see
system.mem_ctrls1.wrQLenPdf::15                382112                       # What write queue length does an incoming req see
system.mem_ctrls1.wrQLenPdf::16                405920                       # What write queue length does an incoming req see
system.mem_ctrls1.wrQLenPdf::17                692631                       # What write queue length does an incoming req see
system.mem_ctrls1.wrQLenPdf::18                757345                       # What write queue length does an incoming req see
system.mem_ctrls1.wrQLenPdf::19                770106                       # What write queue length does an incoming req see
system.mem_ctrls1.wrQLenPdf::20                772213                       # What write queue length does an incoming req see
system.mem_ctrls1.wrQLenPdf::21                772766                       # What write queue length does an incoming req see
system.mem_ctrls1.wrQLenPdf::22                783959                       # What write queue length does an incoming req see
system.mem_ctrls1.wrQLenPdf::23                783528                       # What write queue length does an incoming req see
system.mem_ctrls1.wrQLenPdf::24                775439                       # What write queue length does an incoming req see
system.mem_ctrls1.wrQLenPdf::25                782802                       # What write queue length does an incoming req see
system.mem_ctrls1.wrQLenPdf::26                776773                       # What write queue length does an incoming req see
system.mem_ctrls1.wrQLenPdf::27                772860                       # What write queue length does an incoming req see
system.mem_ctrls1.wrQLenPdf::28                783286                       # What write queue length does an incoming req see
system.mem_ctrls1.wrQLenPdf::29                771739                       # What write queue length does an incoming req see
system.mem_ctrls1.wrQLenPdf::30                766816                       # What write queue length does an incoming req see
system.mem_ctrls1.wrQLenPdf::31                764736                       # What write queue length does an incoming req see
system.mem_ctrls1.wrQLenPdf::32                764477                       # What write queue length does an incoming req see
system.mem_ctrls1.wrQLenPdf::33                  1655                       # What write queue length does an incoming req see
system.mem_ctrls1.wrQLenPdf::34                   442                       # What write queue length does an incoming req see
system.mem_ctrls1.wrQLenPdf::35                   108                       # What write queue length does an incoming req see
system.mem_ctrls1.wrQLenPdf::36                    22                       # What write queue length does an incoming req see
system.mem_ctrls1.wrQLenPdf::37                     6                       # What write queue length does an incoming req see
system.mem_ctrls1.wrQLenPdf::38                     1                       # What write queue length does an incoming req see
system.mem_ctrls1.wrQLenPdf::39                     0                       # What write queue length does an incoming req see
system.mem_ctrls1.wrQLenPdf::40                     0                       # What write queue length does an incoming req see
system.mem_ctrls1.wrQLenPdf::41                     0                       # What write queue length does an incoming req see
system.mem_ctrls1.wrQLenPdf::42                     0                       # What write queue length does an incoming req see
system.mem_ctrls1.wrQLenPdf::43                     0                       # What write queue length does an incoming req see
system.mem_ctrls1.wrQLenPdf::44                     0                       # What write queue length does an incoming req see
system.mem_ctrls1.wrQLenPdf::45                     0                       # What write queue length does an incoming req see
system.mem_ctrls1.wrQLenPdf::46                     0                       # What write queue length does an incoming req see
system.mem_ctrls1.wrQLenPdf::47                     0                       # What write queue length does an incoming req see
system.mem_ctrls1.wrQLenPdf::48                     0                       # What write queue length does an incoming req see
system.mem_ctrls1.wrQLenPdf::49                     0                       # What write queue length does an incoming req see
system.mem_ctrls1.wrQLenPdf::50                     0                       # What write queue length does an incoming req see
system.mem_ctrls1.wrQLenPdf::51                     0                       # What write queue length does an incoming req see
system.mem_ctrls1.wrQLenPdf::52                     0                       # What write queue length does an incoming req see
system.mem_ctrls1.wrQLenPdf::53                     0                       # What write queue length does an incoming req see
system.mem_ctrls1.wrQLenPdf::54                     0                       # What write queue length does an incoming req see
system.mem_ctrls1.wrQLenPdf::55                     0                       # What write queue length does an incoming req see
system.mem_ctrls1.wrQLenPdf::56                     0                       # What write queue length does an incoming req see
system.mem_ctrls1.wrQLenPdf::57                     0                       # What write queue length does an incoming req see
system.mem_ctrls1.wrQLenPdf::58                     0                       # What write queue length does an incoming req see
system.mem_ctrls1.wrQLenPdf::59                     0                       # What write queue length does an incoming req see
system.mem_ctrls1.wrQLenPdf::60                     0                       # What write queue length does an incoming req see
system.mem_ctrls1.wrQLenPdf::61                     0                       # What write queue length does an incoming req see
system.mem_ctrls1.wrQLenPdf::62                     0                       # What write queue length does an incoming req see
system.mem_ctrls1.wrQLenPdf::63                     0                       # What write queue length does an incoming req see
system.mem_ctrls1.bytesPerActivate::samples     14115003                       # Bytes accessed per row activation
system.mem_ctrls1.bytesPerActivate::mean   140.359937                       # Bytes accessed per row activation
system.mem_ctrls1.bytesPerActivate::gmean   115.000864                       # Bytes accessed per row activation
system.mem_ctrls1.bytesPerActivate::stdev   104.123565                       # Bytes accessed per row activation
system.mem_ctrls1.bytesPerActivate::0-127      6164438     43.67%     43.67% # Bytes accessed per row activation
system.mem_ctrls1.bytesPerActivate::128-255      5836086     41.35%     85.02% # Bytes accessed per row activation
system.mem_ctrls1.bytesPerActivate::256-383      1516489     10.74%     95.76% # Bytes accessed per row activation
system.mem_ctrls1.bytesPerActivate::384-511       387732      2.75%     98.51% # Bytes accessed per row activation
system.mem_ctrls1.bytesPerActivate::512-639       116904      0.83%     99.34% # Bytes accessed per row activation
system.mem_ctrls1.bytesPerActivate::640-767        55284      0.39%     99.73% # Bytes accessed per row activation
system.mem_ctrls1.bytesPerActivate::768-895        23508      0.17%     99.90% # Bytes accessed per row activation
system.mem_ctrls1.bytesPerActivate::896-1023         8421      0.06%     99.96% # Bytes accessed per row activation
system.mem_ctrls1.bytesPerActivate::1024-1151         6141      0.04%    100.00% # Bytes accessed per row activation
system.mem_ctrls1.bytesPerActivate::total     14115003                       # Bytes accessed per row activation
system.mem_ctrls1.rdPerTurnAround::samples       764098                       # Reads before turning the bus around for writes
system.mem_ctrls1.rdPerTurnAround::mean     23.392579                       # Reads before turning the bus around for writes
system.mem_ctrls1.rdPerTurnAround::gmean    22.814092                       # Reads before turning the bus around for writes
system.mem_ctrls1.rdPerTurnAround::stdev    38.037589                       # Reads before turning the bus around for writes
system.mem_ctrls1.rdPerTurnAround::0-2047       764097    100.00%    100.00% # Reads before turning the bus around for writes
system.mem_ctrls1.rdPerTurnAround::32768-34815            1      0.00%    100.00% # Reads before turning the bus around for writes
system.mem_ctrls1.rdPerTurnAround::total       764098                       # Reads before turning the bus around for writes
system.mem_ctrls1.wrPerTurnAround::samples       764097                       # Writes before turning the bus around for reads
system.mem_ctrls1.wrPerTurnAround::mean     17.120520                       # Writes before turning the bus around for reads
system.mem_ctrls1.wrPerTurnAround::gmean    17.084586                       # Writes before turning the bus around for reads
system.mem_ctrls1.wrPerTurnAround::stdev     1.114129                       # Writes before turning the bus around for reads
system.mem_ctrls1.wrPerTurnAround::16          358439     46.91%     46.91% # Writes before turning the bus around for reads
system.mem_ctrls1.wrPerTurnAround::17           19487      2.55%     49.46% # Writes before turning the bus around for reads
system.mem_ctrls1.wrPerTurnAround::18          331252     43.35%     92.81% # Writes before turning the bus around for reads
system.mem_ctrls1.wrPerTurnAround::19           46719      6.11%     98.93% # Writes before turning the bus around for reads
system.mem_ctrls1.wrPerTurnAround::20            7176      0.94%     99.87% # Writes before turning the bus around for reads
system.mem_ctrls1.wrPerTurnAround::21             853      0.11%     99.98% # Writes before turning the bus around for reads
system.mem_ctrls1.wrPerTurnAround::22             134      0.02%    100.00% # Writes before turning the bus around for reads
system.mem_ctrls1.wrPerTurnAround::23              31      0.00%    100.00% # Writes before turning the bus around for reads
system.mem_ctrls1.wrPerTurnAround::24               6      0.00%    100.00% # Writes before turning the bus around for reads
system.mem_ctrls1.wrPerTurnAround::total       764097                       # Writes before turning the bus around for reads
system.mem_ctrls1.totQLat                445804206450                       # Total ticks spent queuing
system.mem_ctrls1.totMemAccLat           780945887700                       # Total ticks spent from burst creation until serviced by the DRAM
system.mem_ctrls1.totBusLat               89371115000                       # Total ticks spent in databus transfers
system.mem_ctrls1.avgQLat                    24941.18                       # Average queueing delay per DRAM burst
system.mem_ctrls1.avgBusLat                   5000.00                       # Average bus latency per DRAM burst
system.mem_ctrls1.avgMemAccLat               43691.18                       # Average memory access latency per DRAM burst
system.mem_ctrls1.avgRdBW                      229.85                       # Average DRAM read bandwidth in MiByte/s
system.mem_ctrls1.avgWrBW                      168.22                       # Average achieved write bandwidth in MiByte/s
system.mem_ctrls1.avgRdBWSys                   229.85                       # Average system read bandwidth in MiByte/s
system.mem_ctrls1.avgWrBWSys                   168.22                       # Average system write bandwidth in MiByte/s
system.mem_ctrls1.peakBW                     12800.00                       # Theoretical peak bandwidth in MiByte/s
system.mem_ctrls1.busUtil                        3.11                       # Data bus utilization in percentage
system.mem_ctrls1.busUtilRead                    1.80                       # Data bus utilization in percentage for reads
system.mem_ctrls1.busUtilWrite                   1.31                       # Data bus utilization in percentage for writes
system.mem_ctrls1.avgRdQLen                      1.03                       # Average read queue length when enqueuing
system.mem_ctrls1.avgWrQLen                     24.93                       # Average write queue length when enqueuing
system.mem_ctrls1.readRowHits                 8525865                       # Number of row buffer hits during reads
system.mem_ctrls1.writeRowHits                8315100                       # Number of row buffer hits during writes
system.mem_ctrls1.readRowHitRate                47.70                       # Row buffer hit rate for reads
system.mem_ctrls1.writeRowHitRate               63.56                       # Row buffer hit rate for writes
system.mem_ctrls1.avgGap                    160775.66                       # Average gap between requests
system.mem_ctrls1.pageHitRate                   54.40                       # Row buffer hit rate, read and write combined
system.mem_ctrls1_0.actEnergy             50543174640                       # Energy for activate commands per rank (pJ)
system.mem_ctrls1_0.preEnergy             26864319240                       # Energy for precharge commands per rank (pJ)
system.mem_ctrls1_0.readEnergy            63990557820                       # Energy for read commands per rank (pJ)
system.mem_ctrls1_0.writeEnergy           34274415600                       # Energy for write commands per rank (pJ)
system.mem_ctrls1_0.refreshEnergy        401754518880.000061                       # Energy for refresh commands per rank (pJ)
system.mem_ctrls1_0.actBackEnergy        517525223730                       # Energy for active background per rank (pJ)
system.mem_ctrls1_0.preBackEnergy         14720204160                       # Energy for precharge background per rank (pJ)
system.mem_ctrls1_0.actPowerDownEnergy   1374563836710                       # Energy for active power-down per rank (pJ)
system.mem_ctrls1_0.prePowerDownEnergy   275630490720                       # Energy for precharge power-down per rank (pJ)
system.mem_ctrls1_0.selfRefreshEnergy     31226484870                       # Energy for self refresh per rank (pJ)
system.mem_ctrls1_0.totalEnergy          2791276121880                       # Total energy per rank (pJ)
system.mem_ctrls1_0.averagePower           560.838372                       # Core power per rank (mW)
system.mem_ctrls1_0.totalIdleTime        3803302289689                       # Total Idle time Per DRAM Rank
system.mem_ctrls1_0.memoryStateTime::IDLE  18718486113                       # Time in different power states
system.mem_ctrls1_0.memoryStateTime::REF 170111266000                       # Time in different power states
system.mem_ctrls1_0.memoryStateTime::SREF  71124021854                       # Time in different power states
system.mem_ctrls1_0.memoryStateTime::PRE_PDN 717786631201                       # Time in different power states
system.mem_ctrls1_0.memoryStateTime::ACT 984838459411                       # Time in different power states
system.mem_ctrls1_0.memoryStateTime::ACT_PDN 3014391636634                       # Time in different power states
system.mem_ctrls1_1.actEnergy             50238011040                       # Energy for activate commands per rank (pJ)
system.mem_ctrls1_1.preEnergy             26702109555                       # Energy for precharge commands per rank (pJ)
system.mem_ctrls1_1.readEnergy            63631394400                       # Energy for read commands per rank (pJ)
system.mem_ctrls1_1.writeEnergy           34012314180                       # Energy for write commands per rank (pJ)
system.mem_ctrls1_1.refreshEnergy        402310153440.000061                       # Energy for refresh commands per rank (pJ)
system.mem_ctrls1_1.actBackEnergy        516008456580                       # Energy for active background per rank (pJ)
system.mem_ctrls1_1.preBackEnergy         15073516800                       # Energy for precharge background per rank (pJ)
system.mem_ctrls1_1.actPowerDownEnergy   1369738052550                       # Energy for active power-down per rank (pJ)
system.mem_ctrls1_1.prePowerDownEnergy   278800127520                       # Energy for precharge power-down per rank (pJ)
system.mem_ctrls1_1.selfRefreshEnergy     33261913125                       # Energy for self refresh per rank (pJ)
system.mem_ctrls1_1.totalEnergy          2789964628560                       # Total energy per rank (pJ)
system.mem_ctrls1_1.averagePower           560.574862                       # Core power per rank (mW)
system.mem_ctrls1_1.totalIdleTime        3805690450813                       # Total Idle time Per DRAM Rank
system.mem_ctrls1_1.memoryStateTime::IDLE  19691130216                       # Time in different power states
system.mem_ctrls1_1.memoryStateTime::REF 170356014000                       # Time in different power states
system.mem_ctrls1_1.memoryStateTime::SREF  75845914111                       # Time in different power states
system.mem_ctrls1_1.memoryStateTime::PRE_PDN 726047485012                       # Time in different power states
system.mem_ctrls1_1.memoryStateTime::ACT 981232906184                       # Time in different power states
system.mem_ctrls1_1.memoryStateTime::ACT_PDN 3003797051690                       # Time in different power states
system.pwrStateResidencyTicks::UNDEFINED 24962071861080                       # Cumulative time (in ticks) in various power states
system.cpu.branchPred.lookups                       0                       # Number of BP lookups
system.cpu.branchPred.condPredicted                 0                       # Number of conditional branches predicted
system.cpu.branchPred.condIncorrect                 0                       # Number of conditional branches incorrect
system.cpu.branchPred.BTBLookups                    0                       # Number of BTB lookups
system.cpu.branchPred.BTBHits                       0                       # Number of BTB hits
system.cpu.branchPred.BTBCorrect                    0                       # Number of correct BTB predictions (this stat may not work properly.
system.cpu.branchPred.BTBHitPct                   nan                       # BTB Hit Percentage
system.cpu.branchPred.usedRAS                       0                       # Number of times the RAS was used to get a target.
system.cpu.branchPred.RASInCorrect                  0                       # Number of incorrect RAS predictions.
system.cpu.branchPred.indirectLookups               0                       # Number of indirect predictor lookups.
system.cpu.branchPred.indirectHits                  0                       # Number of indirect target hits.
system.cpu.branchPred.indirectMisses                0                       # Number of indirect misses.
system.cpu.branchPredindirectMispredicted            0                       # Number of mispredicted indirect branches.
system.cpu_voltage_domain.voltage                   1                       # Voltage in Volts
system.cpu_clk_domain.clock                       333                       # Clock period in ticks
system.cpu.dtb.fetch_hits                           0                       # ITB hits
system.cpu.dtb.fetch_misses                         0                       # ITB misses
system.cpu.dtb.fetch_acv                            0                       # ITB acv
system.cpu.dtb.fetch_accesses                       0                       # ITB accesses
system.cpu.dtb.read_hits                           14                       # DTB read hits
system.cpu.dtb.read_misses                          0                       # DTB read misses
system.cpu.dtb.read_acv                             0                       # DTB read access violations
system.cpu.dtb.read_accesses                       14                       # DTB read accesses
system.cpu.dtb.write_hits                           1                       # DTB write hits
system.cpu.dtb.write_misses                         0                       # DTB write misses
system.cpu.dtb.write_acv                            0                       # DTB write access violations
system.cpu.dtb.write_accesses                       1                       # DTB write accesses
system.cpu.dtb.data_hits                           15                       # DTB hits
system.cpu.dtb.data_misses                          0                       # DTB misses
system.cpu.dtb.data_acv                             0                       # DTB access violations
system.cpu.dtb.data_accesses                       15                       # DTB accesses
system.cpu.itb.fetch_hits                           4                       # ITB hits
system.cpu.itb.fetch_misses                         0                       # ITB misses
system.cpu.itb.fetch_acv                            0                       # ITB acv
system.cpu.itb.fetch_accesses                       4                       # ITB accesses
system.cpu.itb.read_hits                            0                       # DTB read hits
system.cpu.itb.read_misses                          0                       # DTB read misses
system.cpu.itb.read_acv                             0                       # DTB read access violations
system.cpu.itb.read_accesses                        0                       # DTB read accesses
system.cpu.itb.write_hits                           0                       # DTB write hits
system.cpu.itb.write_misses                         0                       # DTB write misses
system.cpu.itb.write_acv                            0                       # DTB write access violations
system.cpu.itb.write_accesses                       0                       # DTB write accesses
system.cpu.itb.data_hits                            0                       # DTB hits
system.cpu.itb.data_misses                          0                       # DTB misses
system.cpu.itb.data_acv                             0                       # DTB access violations
system.cpu.itb.data_accesses                        0                       # DTB accesses
system.cpu.workload.num_syscalls                    0                       # Number of system calls
system.cpu.pwrStateResidencyTicks::ON    4976970501213                       # Cumulative time (in ticks) in various power states
system.cpu.numCycles                              712                       # number of cpu cycles simulated
system.cpu.numWorkItemsStarted                      0                       # number of work items this cpu started
system.cpu.numWorkItemsCompleted                    0                       # number of work items this cpu completed
system.cpu.fetch.icacheStallCycles                 63                       # Number of cycles fetch is stalled on an Icache miss
system.cpu.fetch.Insts                             29                       # Number of instructions fetch has processed
system.cpu.fetch.Cycles                             4                       # Number of cycles fetch has run and was not squashing or blocked
system.cpu.fetch.SquashCycles                       3                       # Number of cycles fetch has spent squashing
system.cpu.fetch.PendingDrainCycles                 8                       # Number of cycles fetch has spent waiting on pipes to drain
system.cpu.fetch.CacheLines                         4                       # Number of cache lines fetched
system.cpu.fetch.IcacheSquashes                     2                       # Number of outstanding Icache misses that were squashed
system.cpu.fetch.rateDist::samples                 76                       # Number of instructions fetched each cycle (Total)
system.cpu.fetch.rateDist::mean              0.381579                       # Number of instructions fetched each cycle (Total)
system.cpu.fetch.rateDist::stdev             1.657042                       # Number of instructions fetched each cycle (Total)
system.cpu.fetch.rateDist::underflows               0      0.00%      0.00% # Number of instructions fetched each cycle (Total)
system.cpu.fetch.rateDist::0                       72     94.74%     94.74% # Number of instructions fetched each cycle (Total)
system.cpu.fetch.rateDist::1                        0      0.00%     94.74% # Number of instructions fetched each cycle (Total)
system.cpu.fetch.rateDist::2                        0      0.00%     94.74% # Number of instructions fetched each cycle (Total)
system.cpu.fetch.rateDist::3                        0      0.00%     94.74% # Number of instructions fetched each cycle (Total)
system.cpu.fetch.rateDist::4                        0      0.00%     94.74% # Number of instructions fetched each cycle (Total)
system.cpu.fetch.rateDist::5                        1      1.32%     96.05% # Number of instructions fetched each cycle (Total)
system.cpu.fetch.rateDist::6                        0      0.00%     96.05% # Number of instructions fetched each cycle (Total)
system.cpu.fetch.rateDist::7                        0      0.00%     96.05% # Number of instructions fetched each cycle (Total)
system.cpu.fetch.rateDist::8                        3      3.95%    100.00% # Number of instructions fetched each cycle (Total)
system.cpu.fetch.rateDist::overflows                0      0.00%    100.00% # Number of instructions fetched each cycle (Total)
system.cpu.fetch.rateDist::min_value                0                       # Number of instructions fetched each cycle (Total)
system.cpu.fetch.rateDist::max_value                8                       # Number of instructions fetched each cycle (Total)
system.cpu.fetch.rateDist::total                   76                       # Number of instructions fetched each cycle (Total)
system.cpu.fetch.branchRate                         0                       # Number of branch fetches per cycle
system.cpu.fetch.rate                        0.040730                       # Number of inst fetches per cycle
[...]
system.switch_cpus_1.iq.FU_type_0::IprAccess            0      0.00%    100.00% # Type of FU issued
system.switch_cpus_1.iq.FU_type_0::InstPrefetch            0      0.00%    100.00% # Type of FU issued
system.switch_cpus_1.iq.FU_type_0::total    326704322                       # Type of FU issued
system.switch_cpus_1.iq.rate                 0.468922                       # Inst issue rate
system.switch_cpus_1.iq.fu_busy_cnt          58834099                       # FU busy when requested
system.switch_cpus_1.iq.fu_busy_rate         0.180084                       # FU busy rate (busy events/executed inst)
system.switch_cpus_1.iq.int_inst_queue_reads    749705825                       # Number of integer instruction queue reads
system.switch_cpus_1.iq.int_inst_queue_writes     23716655                       # Number of integer instruction queue writes
system.switch_cpus_1.iq.int_inst_queue_wakeup_accesses     22425259                       # Number of integer instruction queue wakeup accesses
system.switch_cpus_1.iq.fp_inst_queue_reads    659314292                       # Number of floating instruction queue reads
system.switch_cpus_1.iq.fp_inst_queue_writes    190283133                       # Number of floating instruction queue writes
system.switch_cpus_1.iq.fp_inst_queue_wakeup_accesses    182386348                       # Number of floating instruction queue wakeup accesses
system.switch_cpus_1.iq.int_alu_accesses     27545017                       # Number of integer alu accesses
system.switch_cpus_1.iq.fp_alu_accesses     357993404                       # Number of floating point alu accesses
system.switch_cpus_1.iew.lsq.thread0.forwLoads      8679601                       # Number of loads that had data forwarded from stores
system.switch_cpus_1.iew.lsq.thread0.invAddrLoads            0                       # Number of loads ignored due to an invalid address
system.switch_cpus_1.iew.lsq.thread0.squashedLoads      1751519                       # Number of loads squashed
system.switch_cpus_1.iew.lsq.thread0.ignoredResponses           28                       # Number of memory responses ignored because the instruction is squashed
system.switch_cpus_1.iew.lsq.thread0.memOrderViolation         1285                       # Number of memory ordering violations
system.switch_cpus_1.iew.lsq.thread0.squashedStores       655422                       # Number of stores squashed
system.switch_cpus_1.iew.lsq.thread0.invAddrSwpfs            0                       # Number of software prefetches ignored due to an invalid address
system.switch_cpus_1.iew.lsq.thread0.blockedLoads            0                       # Number of blocked loads due to partial load-store forwarding
system.switch_cpus_1.iew.lsq.thread0.rescheduledLoads            0                       # Number of loads that were rescheduled
system.switch_cpus_1.iew.lsq.thread0.cacheBlocked    129608069                       # Number of times an access to memory failed due to the cache being blocked
system.switch_cpus_1.iew.iewIdleCycles              0                       # Number of cycles IEW is idle
system.switch_cpus_1.iew.iewSquashCycles        62317                       # Number of cycles IEW is squashing
system.switch_cpus_1.iew.iewBlockCycles     478785945                       # Number of cycles IEW is blocking
system.switch_cpus_1.iew.iewUnblockCycles     40991353                       # Number of cycles IEW is unblocking
system.switch_cpus_1.iew.iewDispatchedInsts    206999299                       # Number of instructions dispatched to IQ
system.switch_cpus_1.iew.iewDispSquashedInsts           20                       # Number of squashed instructions skipped by dispatch
system.switch_cpus_1.iew.iewDispLoadInsts     38696109                       # Number of dispatched load instructions
system.switch_cpus_1.iew.iewDispStoreInsts     18517428                       # Number of dispatched store instructions
system.switch_cpus_1.iew.iewDispNonSpecInsts            0                       # Number of dispatched non-speculative instructions
system.switch_cpus_1.iew.iewIQFullEvents      2072232                       # Number of times the IQ has become full, causing a stall
system.switch_cpus_1.iew.iewLSQFullEvents     37106510                       # Number of times the LSQ has become full, causing a stall
system.switch_cpus_1.iew.memOrderViolationEvents         1285                       # Number of memory order violations
system.switch_cpus_1.iew.predictedTakenIncorrect         1307                       # Number of branches that were predicted taken incorrectly
system.switch_cpus_1.iew.predictedNotTakenIncorrect         8927                       # Number of branches that were predicted not taken incorrectly
system.switch_cpus_1.iew.branchMispredicts        10234                       # Number of branch mispredicts detected at execute
system.switch_cpus_1.iew.iewExecutedInsts    326696936                       # Number of executed instructions
system.switch_cpus_1.iew.iewExecLoadInsts    159980568                       # Number of load instructions executed
system.switch_cpus_1.iew.iewExecSquashedInsts         7370                       # Number of squashed instructions skipped in execute
system.switch_cpus_1.iew.exec_swp                   0                       # number of swp insts executed
system.switch_cpus_1.iew.exec_nop                   1                       # number of nop insts executed
system.switch_cpus_1.iew.exec_refs          178375686                       # number of memory reference insts executed
system.switch_cpus_1.iew.exec_branches        3143096                       # Number of branches executed
system.switch_cpus_1.iew.exec_stores         18395118                       # Number of stores executed
system.switch_cpus_1.iew.exec_rate           0.468911                       # Inst execution rate
system.switch_cpus_1.iew.wb_sent            205004037                       # cumulative count of insts sent to commit
system.switch_cpus_1.iew.wb_count           204811607                       # cumulative count of insts written-back
system.switch_cpus_1.iew.wb_producers       162686163                       # num instructions producing a value
system.switch_cpus_1.iew.wb_consumers       223442757                       # num instructions consuming a value
system.switch_cpus_1.iew.wb_rate             0.293968                       # insts written-back per cycle
system.switch_cpus_1.iew.wb_fanout           0.728089                       # average fanout of values written-back
system.switch_cpus_1.commit.commitSquashedInsts      7060694                       # The number of squashed insts skipped by commit
system.switch_cpus_1.commit.branchMispredicts        10234                       # The number of times a branch was mispredicted
system.switch_cpus_1.commit.committed_per_cycle::samples    695799460                       # Number of insts commited each cycle
system.switch_cpus_1.commit.committed_per_cycle::mean     0.287439                       # Number of insts commited each cycle
system.switch_cpus_1.commit.committed_per_cycle::stdev     1.370098                       # Number of insts commited each cycle
system.switch_cpus_1.commit.committed_per_cycle::underflows            0      0.00%      0.00% # Number of insts commited each cycle
system.switch_cpus_1.commit.committed_per_cycle::0    657801627     94.54%     94.54% # Number of insts commited each cycle
system.switch_cpus_1.commit.committed_per_cycle::1      8009117      1.15%     95.69% # Number of insts commited each cycle
system.switch_cpus_1.commit.committed_per_cycle::2      1802137      0.26%     95.95% # Number of insts commited each cycle
system.switch_cpus_1.commit.committed_per_cycle::3      2093383      0.30%     96.25% # Number of insts commited each cycle
system.switch_cpus_1.commit.committed_per_cycle::4      3061370      0.44%     96.69% # Number of insts commited each cycle
system.switch_cpus_1.commit.committed_per_cycle::5      3126937      0.45%     97.14% # Number of insts commited each cycle
system.switch_cpus_1.commit.committed_per_cycle::6      1842843      0.26%     97.40% # Number of insts commited each cycle
system.switch_cpus_1.commit.committed_per_cycle::7      1327128      0.19%     97.59% # Number of insts commited each cycle
system.switch_cpus_1.commit.committed_per_cycle::8     16734918      2.41%    100.00% # Number of insts commited each cycle
system.switch_cpus_1.commit.committed_per_cycle::overflows            0      0.00%    100.00% # Number of insts commited each cycle
system.switch_cpus_1.commit.committed_per_cycle::min_value            0                       # Number of insts commited each cycle
system.switch_cpus_1.commit.committed_per_cycle::max_value            8                       # Number of insts commited each cycle
system.switch_cpus_1.commit.committed_per_cycle::total    695799460                       # Number of insts commited each cycle
system.switch_cpus_1.commit.committedInsts    200000003                       # Number of instructions committed
system.switch_cpus_1.commit.committedOps    200000003                       # Number of ops (including micro ops) committed
system.switch_cpus_1.commit.swp_count               0                       # Number of s/w prefetches committed
system.switch_cpus_1.commit.refs             54806565                       # Number of memory references committed
system.switch_cpus_1.commit.loads            36944574                       # Number of loads committed
system.switch_cpus_1.commit.membars                 0                       # Number of memory barriers committed
system.switch_cpus_1.commit.branches          3002738                       # Number of branches committed
system.switch_cpus_1.commit.fp_insts        178679405                       # Number of committed floating point instructions.
system.switch_cpus_1.commit.int_insts        74337577                       # Number of committed integer instructions.
system.switch_cpus_1.commit.function_calls            0                       # Number of function calls committed.
system.switch_cpus_1.commit.op_class_0::No_OpClass            0      0.00%      0.00% # Class of committed instruction
system.switch_cpus_1.commit.op_class_0::IntAlu     20683879     10.34%     10.34% # Class of committed instruction
system.switch_cpus_1.commit.op_class_0::IntMult            0      0.00%     10.34% # Class of committed instruction
system.switch_cpus_1.commit.op_class_0::IntDiv            0      0.00%     10.34% # Class of committed instruction
system.switch_cpus_1.commit.op_class_0::FloatAdd     77818474     38.91%     49.25% # Class of committed instruction
system.switch_cpus_1.commit.op_class_0::FloatCmp            0      0.00%     49.25% # Class of committed instruction
system.switch_cpus_1.commit.op_class_0::FloatCvt            0      0.00%     49.25% # Class of committed instruction
system.switch_cpus_1.commit.op_class_0::FloatMult     44961786     22.48%     71.73% # Class of committed instruction
system.switch_cpus_1.commit.op_class_0::FloatMultAcc            0      0.00%     71.73% # Class of committed instruction
system.switch_cpus_1.commit.op_class_0::FloatDiv      1729299      0.86%     72.60% # Class of committed instruction
system.switch_cpus_1.commit.op_class_0::FloatMisc            0      0.00%     72.60% # Class of committed instruction
system.switch_cpus_1.commit.op_class_0::FloatSqrt            0      0.00%     72.60% # Class of committed instruction
system.switch_cpus_1.commit.op_class_0::SimdAdd            0      0.00%     72.60% # Class of committed instruction
system.switch_cpus_1.commit.op_class_0::SimdAddAcc            0      0.00%     72.60% # Class of committed instruction
system.switch_cpus_1.commit.op_class_0::SimdAlu            0      0.00%     72.60% # Class of committed instruction
system.switch_cpus_1.commit.op_class_0::SimdCmp            0      0.00%     72.60% # Class of committed instruction
system.switch_cpus_1.commit.op_class_0::SimdCvt            0      0.00%     72.60% # Class of committed instruction
system.switch_cpus_1.commit.op_class_0::SimdMisc            0      0.00%     72.60% # Class of committed instruction
system.switch_cpus_1.commit.op_class_0::SimdMult            0      0.00%     72.60% # Class of committed instruction
system.switch_cpus_1.commit.op_class_0::SimdMultAcc            0      0.00%     72.60% # Class of committed instruction
system.switch_cpus_1.commit.op_class_0::SimdShift            0      0.00%     72.60% # Class of committed instruction
system.switch_cpus_1.commit.op_class_0::SimdShiftAcc            0      0.00%     72.60% # Class of committed instruction
system.switch_cpus_1.commit.op_class_0::SimdSqrt            0      0.00%     72.60% # Class of committed instruction
system.switch_cpus_1.commit.op_class_0::SimdFloatAdd            0      0.00%     72.60% # Class of committed instruction
system.switch_cpus_1.commit.op_class_0::SimdFloatAlu            0      0.00%     72.60% # Class of committed instruction
system.switch_cpus_1.commit.op_class_0::SimdFloatCmp            0      0.00%     72.60% # Class of committed instruction
system.switch_cpus_1.commit.op_class_0::SimdFloatCvt            0      0.00%     72.60% # Class of committed instruction
system.switch_cpus_1.commit.op_class_0::SimdFloatDiv            0      0.00%     72.60% # Class of committed instruction
system.switch_cpus_1.commit.op_class_0::SimdFloatMisc            0      0.00%     72.60% # Class of committed instruction
system.switch_cpus_1.commit.op_class_0::SimdFloatMult            0      0.00%     72.60% # Class of committed instruction
system.switch_cpus_1.commit.op_class_0::SimdFloatMultAcc            0      0.00%     72.60% # Class of committed instruction
system.switch_cpus_1.commit.op_class_0::SimdFloatSqrt            0      0.00%     72.60% # Class of committed instruction
system.switch_cpus_1.commit.op_class_0::MemRead       636719      0.32%     72.92% # Class of committed instruction
system.switch_cpus_1.commit.op_class_0::MemWrite            0      0.00%     72.92% # Class of committed instruction
system.switch_cpus_1.commit.op_class_0::FloatMemRead     36307855     18.15%     91.07% # Class of committed instruction
system.switch_cpus_1.commit.op_class_0::FloatMemWrite     17861991      8.93%    100.00% # Class of committed instruction
system.switch_cpus_1.commit.op_class_0::IprAccess            0      0.00%    100.00% # Class of committed instruction
system.switch_cpus_1.commit.op_class_0::InstPrefetch            0      0.00%    100.00% # Class of committed instruction
system.switch_cpus_1.commit.op_class_0::total    200000003                       # Class of committed instruction
system.switch_cpus_1.commit.bw_lim_events     16734918                       # number cycles where commit BW limit reached
system.switch_cpus_1.rob.rob_reads          885457910                       # The number of ROB reads
system.switch_cpus_1.rob.rob_writes         415035816                       # The number of ROB writes
system.switch_cpus_1.committedInsts         200000003                       # Number of Instructions Simulated
system.switch_cpus_1.committedOps           200000003                       # Number of Ops (including micro ops) Simulated
system.switch_cpus_1.cpi                     3.483569                       # CPI: Cycles Per Instruction
system.switch_cpus_1.cpi_total               3.483569                       # CPI: Total CPI of All Threads
system.switch_cpus_1.ipc                     0.287062                       # IPC: Instructions Per Cycle
system.switch_cpus_1.ipc_total               0.287062                       # IPC: Total IPC of All Threads
system.switch_cpus_1.int_regfile_reads      199627175                       # number of integer regfile reads
system.switch_cpus_1.int_regfile_writes      19283216                       # number of integer regfile writes
system.switch_cpus_1.fp_regfile_reads       271517812                       # number of floating regfile reads
system.switch_cpus_1.fp_regfile_writes      164043164                       # number of floating regfile writes
system.tol3bus.snoop_filter.tot_requests     76288135                       # Total number of requests made to the snoop filter.
system.tol3bus.snoop_filter.hit_single_requests     38141897                       # Number of requests hitting in the snoop filter with a single holder of the requested data.
system.tol3bus.snoop_filter.hit_multi_requests            0                       # Number of requests hitting in the snoop filter with multiple (>1) holders of the requested data.
system.tol3bus.snoop_filter.tot_snoops            286                       # Total number of snoops made to the snoop filter.
system.tol3bus.snoop_filter.hit_single_snoops          286                       # Number of snoops hitting in the snoop filter with a single holder of the requested data.
system.tol3bus.snoop_filter.hit_multi_snoops            0                       # Number of snoops hitting in the snoop filter with multiple (>1) holders of the requested data.
system.tol3bus.pwrStateResidencyTicks::UNDEFINED 24962071861080                       # Cumulative time (in ticks) in various power states
system.tol3bus.trans_dist::ReadResp           9536651                       # Transaction distribution
system.tol3bus.trans_dist::WritebackDirty     54769732                       # Transaction distribution
system.tol3bus.trans_dist::CleanEvict        19052856                       # Transaction distribution
system.tol3bus.trans_dist::ReadExReq         28609587                       # Transaction distribution
system.tol3bus.trans_dist::ReadExResp        28609585                       # Transaction distribution
system.tol3bus.trans_dist::ReadSharedReq      9536651                       # Transaction distribution
system.tol3bus.pkt_count_system.cpu.l2.mem_side::system.l3.cpu_side    114434371                       # Packet count per connected master and slave (bytes)
system.tol3bus.pkt_size_system.cpu.l2.mem_side::system.l3.cpu_side   4272153472                       # Cumulative packet size per connected master and slave (bytes)
system.tol3bus.snoops                        35680691                       # Total snoops (count)
system.tol3bus.snoopTraffic                1674468480                       # Total snoop traffic (bytes)
system.tol3bus.snoop_fanout::samples         73826929                       # Request fanout histogram
system.tol3bus.snoop_fanout::mean            0.000004                       # Request fanout histogram
system.tol3bus.snoop_fanout::stdev           0.001968                       # Request fanout histogram
system.tol3bus.snoop_fanout::underflows             0      0.00%      0.00% # Request fanout histogram
system.tol3bus.snoop_fanout::0               73826643    100.00%    100.00% # Request fanout histogram
system.tol3bus.snoop_fanout::1                    286      0.00%    100.00% # Request fanout histogram
system.tol3bus.snoop_fanout::overflows              0      0.00%    100.00% # Request fanout histogram
system.tol3bus.snoop_fanout::min_value              0                       # Request fanout histogram
system.tol3bus.snoop_fanout::max_value              1                       # Request fanout histogram
system.tol3bus.snoop_fanout::total           73826929                       # Request fanout histogram
system.tol3bus.reqLayer0.occupancy        34929800901                       # Layer occupancy (ticks)
system.tol3bus.reqLayer0.utilization              0.7                       # Layer utilization (%)
system.tol3bus.respLayer0.occupancy       25405393176                       # Layer occupancy (ticks)
system.tol3bus.respLayer0.utilization             0.5                       # Layer utilization (%)

---------- End Simulation Statistics   ----------
