
---------- Begin Simulation Statistics ----------
sim_seconds                                 18.491574                       # Number of seconds simulated
sim_ticks                                18491573593899                       # Number of ticks simulated
final_tick                               180573756756399                       # Number of ticks from beginning of simulation (restored from checkpoints and never reset)
sim_freq                                 1000000000000                       # Frequency of simulated ticks
host_inst_rate                                  40272                       # Simulator instruction rate (inst/s)
host_op_rate                                    40272                       # Simulator op (including micro ops) rate (op/s)
host_tick_rate                              620571832                       # Simulator tick rate (ticks/s)
host_mem_usage                                2689536                       # Number of bytes of host memory used
host_seconds                                 29797.64                       # Real time elapsed on the host
sim_insts                                  1200000012                       # Number of instructions simulated
sim_ops                                    1200000012                       # Number of ops (including micro ops) simulated
system.voltage_domain.voltage                       1                       # Voltage in Volts
system.clk_domain.clock                          1000                       # Clock period in ticks
system.mem_ctrls0.pwrStateResidencyTicks::UNDEFINED 180573756756399                       # Cumulative time (in ticks) in various power states
system.mem_ctrls0.bytes_read::cpu.inst            128                       # Number of bytes read from this memory
system.mem_ctrls0.bytes_read::switch_cpus.inst         1472                       # Number of bytes read from this memory
system.mem_ctrls0.bytes_read::switch_cpus.data   1988127680                       # Number of bytes read from this memory
system.mem_ctrls0.bytes_read::switch_cpus_1.inst          128                       # Number of bytes read from this memory
system.mem_ctrls0.bytes_read::switch_cpus_1.data    397092672                       # Number of bytes read from this memory
system.mem_ctrls0.bytes_read::total        2385222080                       # Number of bytes read from this memory
system.mem_ctrls0.bytes_inst_read::cpu.inst          128                       # Number of instructions bytes read from this memory
system.mem_ctrls0.bytes_inst_read::switch_cpus.inst         1472                       # Number of instructions bytes read from this memory
system.mem_ctrls0.bytes_inst_read::switch_cpus_1.inst          128                       # Number of instructions bytes read from this memory
system.mem_ctrls0.bytes_inst_read::total         1728                       # Number of instructions bytes read from this memory
system.mem_ctrls0.bytes_written::writebacks      3720576                       # Number of bytes written to this memory
system.mem_ctrls0.bytes_written::total        3720576                       # Number of bytes written to this memory
system.mem_ctrls0.num_reads::cpu.inst               2                       # Number of read requests responded to by this memory
system.mem_ctrls0.num_reads::switch_cpus.inst           23                       # Number of read requests responded to by this memory
system.mem_ctrls0.num_reads::switch_cpus.data     31064495                       # Number of read requests responded to by this memory
system.mem_ctrls0.num_reads::switch_cpus_1.inst            2                       # Number of read requests responded to by this memory
system.mem_ctrls0.num_reads::switch_cpus_1.data      6204573                       # Number of read requests responded to by this memory
system.mem_ctrls0.num_reads::total           37269095                       # Number of read requests responded to by this memory
system.mem_ctrls0.num_writes::writebacks        58134                       # Number of write requests responded to by this memory
system.mem_ctrls0.num_writes::total             58134                       # Number of write requests responded to by this memory
system.mem_ctrls0.bw_read::cpu.inst                 7                       # Total read bandwidth from this memory (bytes/s)
system.mem_ctrls0.bw_read::switch_cpus.inst           80                       # Total read bandwidth from this memory (bytes/s)
system.mem_ctrls0.bw_read::switch_cpus.data    107515332                       # Total read bandwidth from this memory (bytes/s)
system.mem_ctrls0.bw_read::switch_cpus_1.inst            7                       # Total read bandwidth from this memory (bytes/s)
system.mem_ctrls0.bw_read::switch_cpus_1.data     21474250                       # Total read bandwidth from this memory (bytes/s)
system.mem_ctrls0.bw_read::total            128989676                       # Total read bandwidth from this memory (bytes/s)
system.mem_ctrls0.bw_inst_read::cpu.inst            7                       # Instruction read bandwidth from this memory (bytes/s)
system.mem_ctrls0.bw_inst_read::switch_cpus.inst           80                       # Instruction read bandwidth from this memory (bytes/s)
system.mem_ctrls0.bw_inst_read::switch_cpus_1.inst            7                       # Instruction read bandwidth from this memory (bytes/s)
system.mem_ctrls0.bw_inst_read::total              93                       # Instruction read bandwidth from this memory (bytes/s)
system.mem_ctrls0.bw_write::writebacks         201204                       # Write bandwidth from this memory (bytes/s)
system.mem_ctrls0.bw_write::total              201204                       # Write bandwidth from this memory (bytes/s)
system.mem_ctrls0.bw_total::writebacks         201204                       # Total bandwidth to/from this memory (bytes/s)
system.mem_ctrls0.bw_total::cpu.inst                7                       # Total bandwidth to/from this memory (bytes/s)
system.mem_ctrls0.bw_total::switch_cpus.inst           80                       # Total bandwidth to/from this memory (bytes/s)
system.mem_ctrls0.bw_total::switch_cpus.data    107515332                       # Total bandwidth to/from this memory (bytes/s)
system.mem_ctrls0.bw_total::switch_cpus_1.inst            7                       # Total bandwidth to/from this memory (bytes/s)
system.mem_ctrls0.bw_total::switch_cpus_1.data     21474250                       # Total bandwidth to/from this memory (bytes/s)
system.mem_ctrls0.bw_total::total           129190880                       # Total bandwidth to/from this memory (bytes/s)
system.mem_ctrls0.readReqs                   37269095                       # Number of read requests accepted
system.mem_ctrls0.writeReqs                     58134                       # Number of write requests accepted
system.mem_ctrls0.readBursts                 37269095                       # Number of DRAM read bursts, including those serviced by the write queue
system.mem_ctrls0.writeBursts                   58134                       # Number of DRAM write bursts, including those merged in the write queue
system.mem_ctrls0.bytesReadDRAM            2384643136                       # Total number of bytes read from DRAM
system.mem_ctrls0.bytesReadWrQ                 578944                       # Total number of bytes read from write queue
system.mem_ctrls0.bytesWritten                3697920                       # Total number of bytes written to DRAM
system.mem_ctrls0.bytesReadSys             2385222080                       # Total read bytes from the system interface side
system.mem_ctrls0.bytesWrittenSys             3720576                       # Total written bytes from the system interface side
system.mem_ctrls0.servicedByWrQ                  9046                       # Number of DRAM read bursts serviced by the write queue
system.mem_ctrls0.mergedWrBursts                  326                       # Number of DRAM write bursts merged with an existing one
system.mem_ctrls0.neitherReadNorWriteReqs            0                       # Number of requests that are neither read nor write
system.mem_ctrls0.perBankRdBursts::0          2321492                       # Per bank write bursts
system.mem_ctrls0.perBankRdBursts::1          2329973                       # Per bank write bursts
system.mem_ctrls0.perBankRdBursts::2          2346381                       # Per bank write bursts
system.mem_ctrls0.perBankRdBursts::3          2338855                       # Per bank write bursts
system.mem_ctrls0.perBankRdBursts::4          2345551                       # Per bank write bursts
system.mem_ctrls0.perBankRdBursts::5          2335679                       # Per bank write bursts
system.mem_ctrls0.perBankRdBursts::6          2333915                       # Per bank write bursts
system.mem_ctrls0.perBankRdBursts::7          2318751                       # Per bank write bursts
system.mem_ctrls0.perBankRdBursts::8          2336447                       # Per bank write bursts
system.mem_ctrls0.perBankRdBursts::9          2326919                       # Per bank write bursts
system.mem_ctrls0.perBankRdBursts::10         2327939                       # Per bank write bursts
system.mem_ctrls0.perBankRdBursts::11         2328448                       # Per bank write bursts
system.mem_ctrls0.perBankRdBursts::12         2324746                       # Per bank write bursts
system.mem_ctrls0.perBankRdBursts::13         2320612                       # Per bank write bursts
system.mem_ctrls0.perBankRdBursts::14         2320601                       # Per bank write bursts
system.mem_ctrls0.perBankRdBursts::15         2303740                       # Per bank write bursts
system.mem_ctrls0.perBankWrBursts::0             3350                       # Per bank write bursts
system.mem_ctrls0.perBankWrBursts::1             3394                       # Per bank write bursts
system.mem_ctrls0.perBankWrBursts::2             3308                       # Per bank write bursts
system.mem_ctrls0.perBankWrBursts::3             4344                       # Per bank write bursts
system.mem_ctrls0.perBankWrBursts::4             5381                       # Per bank write bursts
system.mem_ctrls0.perBankWrBursts::5             3430                       # Per bank write bursts
system.mem_ctrls0.perBankWrBursts::6             3336                       # Per bank write bursts
system.mem_ctrls0.perBankWrBursts::7             3623                       # Per bank write bursts
system.mem_ctrls0.perBankWrBursts::8             3772                       # Per bank write bursts
system.mem_ctrls0.perBankWrBursts::9             3345                       # Per bank write bursts
system.mem_ctrls0.perBankWrBursts::10            3478                       # Per bank write bursts
system.mem_ctrls0.perBankWrBursts::11            3449                       # Per bank write bursts
system.mem_ctrls0.perBankWrBursts::12            3364                       # Per bank write bursts
system.mem_ctrls0.perBankWrBursts::13            3418                       # Per bank write bursts
system.mem_ctrls0.perBankWrBursts::14            3369                       # Per bank write bursts
system.mem_ctrls0.perBankWrBursts::15            3419                       # Per bank write bursts
system.mem_ctrls0.numRdRetry                        0                       # Number of times read queue was full causing retry
system.mem_ctrls0.numWrRetry                        0                       # Number of times write queue was full causing retry
system.mem_ctrls0.totGap                 18491572511739                       # Total gap between requests
system.mem_ctrls0.readPktSize::0                    0                       # Read request sizes (log2)
system.mem_ctrls0.readPktSize::1                    0                       # Read request sizes (log2)
system.mem_ctrls0.readPktSize::2                    0                       # Read request sizes (log2)
system.mem_ctrls0.readPktSize::3                    0                       # Read request sizes (log2)
system.mem_ctrls0.readPktSize::4                    0                       # Read request sizes (log2)
system.mem_ctrls0.readPktSize::5                    0                       # Read request sizes (log2)
system.mem_ctrls0.readPktSize::6             37269095                       # Read request sizes (log2)
system.mem_ctrls0.writePktSize::0                   0                       # Write request sizes (log2)
system.mem_ctrls0.writePktSize::1                   0                       # Write request sizes (log2)
system.mem_ctrls0.writePktSize::2                   0                       # Write request sizes (log2)
system.mem_ctrls0.writePktSize::3                   0                       # Write request sizes (log2)
system.mem_ctrls0.writePktSize::4                   0                       # Write request sizes (log2)
system.mem_ctrls0.writePktSize::5                   0                       # Write request sizes (log2)
system.mem_ctrls0.writePktSize::6               58134                       # Write request sizes (log2)
system.mem_ctrls0.rdQLenPdf::0               37258921                       # What read queue length does an incoming req see
system.mem_ctrls0.rdQLenPdf::1                   1102                       # What read queue length does an incoming req see
system.mem_ctrls0.rdQLenPdf::2                     26                       # What read queue length does an incoming req see
system.mem_ctrls0.rdQLenPdf::3                      0                       # What read queue length does an incoming req see
system.mem_ctrls0.rdQLenPdf::4                      0                       # What read queue length does an incoming req see
system.mem_ctrls0.rdQLenPdf::5                      0                       # What read queue length does an incoming req see
system.mem_ctrls0.rdQLenPdf::6                      0                       # What read queue length does an incoming req see
system.mem_ctrls0.rdQLenPdf::7                      0                       # What read queue length does an incoming req see
system.mem_ctrls0.rdQLenPdf::8                      0                       # What read queue length does an incoming req see
system.mem_ctrls0.rdQLenPdf::9                      0                       # What read queue length does an incoming req see
system.mem_ctrls0.rdQLenPdf::10                     0                       # What read queue length does an incoming req see
system.mem_ctrls0.rdQLenPdf::11                     0                       # What read queue length does an incoming req see
system.mem_ctrls0.rdQLenPdf::12                     0                       # What read queue length does an incoming req see
system.mem_ctrls0.rdQLenPdf::13                     0                       # What read queue length does an incoming req see
system.mem_ctrls0.rdQLenPdf::14                     0                       # What read queue length does an incoming req see
system.mem_ctrls0.rdQLenPdf::15                     0                       # What read queue length does an incoming req see
system.mem_ctrls0.rdQLenPdf::16                     0                       # What read queue length does an incoming req see
system.mem_ctrls0.rdQLenPdf::17                     0                       # What read queue length does an incoming req see
system.mem_ctrls0.rdQLenPdf::18                     0                       # What read queue length does an incoming req see
system.mem_ctrls0.rdQLenPdf::19                     0                       # What read queue length does an incoming req see
system.mem_ctrls0.rdQLenPdf::20                     0                       # What read queue length does an incoming req see
system.mem_ctrls0.rdQLenPdf::21                     0                       # What read queue length does an incoming req see
system.mem_ctrls0.rdQLenPdf::22                     0                       # What read queue length does an incoming req see
system.mem_ctrls0.rdQLenPdf::23                     0                       # What read queue length does an incoming req see
system.mem_ctrls0.rdQLenPdf::24                     0                       # What read queue length does an incoming req see
system.mem_ctrls0.rdQLenPdf::25                     0                       # What read queue length does an incoming req see
system.mem_ctrls0.rdQLenPdf::26                     0                       # What read queue length does an incoming req see
system.mem_ctrls0.rdQLenPdf::27                     0                       # What read queue length does an incoming req see
system.mem_ctrls0.rdQLenPdf::28                     0                       # What read queue length does an incoming req see
system.mem_ctrls0.rdQLenPdf::29                     0                       # What read queue length does an incoming req see
system.mem_ctrls0.rdQLenPdf::30                     0                       # What read queue length does an incoming req see
system.mem_ctrls0.rdQLenPdf::31                     0                       # What read queue length does an incoming req see
system.mem_ctrls0.wrQLenPdf::0                      2                       # What write queue length does an incoming req see
system.mem_ctrls0.wrQLenPdf::1                      2                       # What write queue length does an incoming req see
system.mem_ctrls0.wrQLenPdf::2                      2                       # What write queue length does an incoming req see
system.mem_ctrls0.wrQLenPdf::3                      2                       # What write queue length does an incoming req see
system.mem_ctrls0.wrQLenPdf::4                      2                       # What write queue length does an incoming req see
system.mem_ctrls0.wrQLenPdf::5                      2                       # What write queue length does an incoming req see
system.mem_ctrls0.wrQLenPdf::6                      2                       # What write queue length does an incoming req see
system.mem_ctrls0.wrQLenPdf::7                      2                       # What write queue length does an incoming req see
system.mem_ctrls0.wrQLenPdf::8                      2                       # What write queue length does an incoming req see
system.mem_ctrls0.wrQLenPdf::9                      2                       # What write queue length does an incoming req see
system.mem_ctrls0.wrQLenPdf::10                     2                       # What write queue length does an incoming req see
system.mem_ctrls0.wrQLenPdf::11                     2                       # What write queue length does an incoming req see
system.mem_ctrls0.wrQLenPdf::12                     2                       # What write queue length does an incoming req see
system.mem_ctrls0.wrQLenPdf::13                     2                       # What write queue length does an incoming req see
system.mem_ctrls0.wrQLenPdf::14                     2                       # What write queue length does an incoming req see
system.mem_ctrls0.wrQLenPdf::15                  3090                       # What write queue length does an incoming req see
system.mem_ctrls0.wrQLenPdf::16                  3122                       # What write queue length does an incoming req see
system.mem_ctrls0.wrQLenPdf::17                  3223                       # What write queue length does an incoming req see
system.mem_ctrls0.wrQLenPdf::18                  3224                       # What write queue length does an incoming req see
system.mem_ctrls0.wrQLenPdf::19                  3224                       # What write queue length does an incoming req see
system.mem_ctrls0.wrQLenPdf::20                  3223                       # What write queue length does an incoming req see
system.mem_ctrls0.wrQLenPdf::21                  3224                       # What write queue length does an incoming req see
system.mem_ctrls0.wrQLenPdf::22                  3223                       # What write queue length does an incoming req see
system.mem_ctrls0.wrQLenPdf::23                  3227                       # What write queue length does an incoming req see
system.mem_ctrls0.wrQLenPdf::24                  3223                       # What write queue length does an incoming req see
system.mem_ctrls0.wrQLenPdf::25                  3223                       # What write queue length does an incoming req see
system.mem_ctrls0.wrQLenPdf::26                  3223                       # What write queue length does an incoming req see
system.mem_ctrls0.wrQLenPdf::27                  3223                       # What write queue length does an incoming req see
system.mem_ctrls0.wrQLenPdf::28                  3222                       # What write queue length does an incoming req see
system.mem_ctrls0.wrQLenPdf::29                  3221                       # What write queue length does an incoming req see
system.mem_ctrls0.wrQLenPdf::30                  3221                       # What write queue length does an incoming req see
system.mem_ctrls0.wrQLenPdf::31                  3221                       # What write queue length does an incoming req see
system.mem_ctrls0.wrQLenPdf::32                  3221                       # What write queue length does an incoming req see
system.mem_ctrls0.wrQLenPdf::33                     0                       # What write queue length does an incoming req see
system.mem_ctrls0.wrQLenPdf::34                     0                       # What write queue length does an incoming req see
system.mem_ctrls0.wrQLenPdf::35                     0                       # What write queue length does an incoming req see
system.mem_ctrls0.wrQLenPdf::36                     0                       # What write queue length does an incoming req see
system.mem_ctrls0.wrQLenPdf::37                     0                       # What write queue length does an incoming req see
system.mem_ctrls0.wrQLenPdf::38                     0                       # What write queue length does an incoming req see
system.mem_ctrls0.wrQLenPdf::39                     0                       # What write queue length does an incoming req see
system.mem_ctrls0.wrQLenPdf::40                     0                       # What write queue length does an incoming req see
system.mem_ctrls0.wrQLenPdf::41                     0                       # What write queue length does an incoming req see
system.mem_ctrls0.wrQLenPdf::42                     0                       # What write queue length does an incoming req see
system.mem_ctrls0.wrQLenPdf::43                     0                       # What write queue length does an incoming req see
system.mem_ctrls0.wrQLenPdf::44                     0                       # What write queue length does an incoming req see
system.mem_ctrls0.wrQLenPdf::45                     0                       # What write queue length does an incoming req see
system.mem_ctrls0.wrQLenPdf::46                     0                       # What write queue length does an incoming req see
system.mem_ctrls0.wrQLenPdf::47                     0                       # What write queue length does an incoming req see
system.mem_ctrls0.wrQLenPdf::48                     0                       # What write queue length does an incoming req see
system.mem_ctrls0.wrQLenPdf::49                     0                       # What write queue length does an incoming req see
system.mem_ctrls0.wrQLenPdf::50                     0                       # What write queue length does an incoming req see
system.mem_ctrls0.wrQLenPdf::51                     0                       # What write queue length does an incoming req see
system.mem_ctrls0.wrQLenPdf::52                     0                       # What write queue length does an incoming req see
system.mem_ctrls0.wrQLenPdf::53                     0                       # What write queue length does an incoming req see
system.mem_ctrls0.wrQLenPdf::54                     0                       # What write queue length does an incoming req see
system.mem_ctrls0.wrQLenPdf::55                     0                       # What write queue length does an incoming req see
system.mem_ctrls0.wrQLenPdf::56                     0                       # What write queue length does an incoming req see
system.mem_ctrls0.wrQLenPdf::57                     0                       # What write queue length does an incoming req see
system.mem_ctrls0.wrQLenPdf::58                     0                       # What write queue length does an incoming req see
system.mem_ctrls0.wrQLenPdf::59                     0                       # What write queue length does an incoming req see
system.mem_ctrls0.wrQLenPdf::60                     0                       # What write queue length does an incoming req see
system.mem_ctrls0.wrQLenPdf::61                     0                       # What write queue length does an incoming req see
system.mem_ctrls0.wrQLenPdf::62                     0                       # What write queue length does an incoming req see
system.mem_ctrls0.wrQLenPdf::63                     0                       # What write queue length does an incoming req see
system.mem_ctrls0.bytesPerActivate::samples     37242506                       # Bytes accessed per row activation
system.mem_ctrls0.bytesPerActivate::mean    64.129428                       # Bytes accessed per row activation
system.mem_ctrls0.bytesPerActivate::gmean    64.078241                       # Bytes accessed per row activation
system.mem_ctrls0.bytesPerActivate::stdev     4.047820                       # Bytes accessed per row activation
system.mem_ctrls0.bytesPerActivate::0-127     37185601     99.85%     99.85% # Bytes accessed per row activation
system.mem_ctrls0.bytesPerActivate::128-255        52789      0.14%     99.99% # Bytes accessed per row activation
system.mem_ctrls0.bytesPerActivate::256-383         3181      0.01%    100.00% # Bytes accessed per row activation
system.mem_ctrls0.bytesPerActivate::384-511          653      0.00%    100.00% # Bytes accessed per row activation
system.mem_ctrls0.bytesPerActivate::512-639          154      0.00%    100.00% # Bytes accessed per row activation
system.mem_ctrls0.bytesPerActivate::640-767           61      0.00%    100.00% # Bytes accessed per row activation
system.mem_ctrls0.bytesPerActivate::768-895           35      0.00%    100.00% # Bytes accessed per row activation
system.mem_ctrls0.bytesPerActivate::896-1023           24      0.00%    100.00% # Bytes accessed per row activation
system.mem_ctrls0.bytesPerActivate::1024-1151            8      0.00%    100.00% # Bytes accessed per row activation
system.mem_ctrls0.bytesPerActivate::total     37242506                       # Bytes accessed per row activation
system.mem_ctrls0.rdPerTurnAround::samples         3222                       # Reads before turning the bus around for writes
system.mem_ctrls0.rdPerTurnAround::mean  11521.065798                       # Reads before turning the bus around for writes
system.mem_ctrls0.rdPerTurnAround::gmean   282.768905                       # Reads before turning the bus around for writes
system.mem_ctrls0.rdPerTurnAround::stdev 97451.140790                       # Reads before turning the bus around for writes
system.mem_ctrls0.rdPerTurnAround::0-131071         3174     98.51%     98.51% # Reads before turning the bus around for writes
system.mem_ctrls0.rdPerTurnAround::131072-262143           13      0.40%     98.91% # Reads before turning the bus around for writes
system.mem_ctrls0.rdPerTurnAround::262144-393215           15      0.47%     99.38% # Reads before turning the bus around for writes
system.mem_ctrls0.rdPerTurnAround::393216-524287            6      0.19%     99.57% # Reads before turning the bus around for writes
system.mem_ctrls0.rdPerTurnAround::524288-655359            3      0.09%     99.66% # Reads before turning the bus around for writes
system.mem_ctrls0.rdPerTurnAround::655360-786431            1      0.03%     99.69% # Reads before turning the bus around for writes
system.mem_ctrls0.rdPerTurnAround::786432-917503            2      0.06%     99.75% # Reads before turning the bus around for writes
system.mem_ctrls0.rdPerTurnAround::917504-1.04858e+06            1      0.03%     99.78% # Reads before turning the bus around for writes
system.mem_ctrls0.rdPerTurnAround::1.17965e+06-1.31072e+06            2      0.06%     99.84% # Reads before turning the bus around for writes
system.mem_ctrls0.rdPerTurnAround::1.44179e+06-1.57286e+06            2      0.06%     99.91% # Reads before turning the bus around for writes
system.mem_ctrls0.rdPerTurnAround::1.96608e+06-2.09715e+06            1      0.03%     99.94% # Reads before turning the bus around for writes
system.mem_ctrls0.rdPerTurnAround::2.09715e+06-2.22822e+06            1      0.03%     99.97% # Reads before turning the bus around for writes
system.mem_ctrls0.rdPerTurnAround::2.49037e+06-2.62144e+06            1      0.03%    100.00% # Reads before turning the bus around for writes
system.mem_ctrls0.rdPerTurnAround::total         3222                       # Reads before turning the bus around for writes
system.mem_ctrls0.wrPerTurnAround::samples         3222                       # Writes before turning the bus around for reads
system.mem_ctrls0.wrPerTurnAround::mean     17.932961                       # Writes before turning the bus around for reads
system.mem_ctrls0.wrPerTurnAround::gmean    17.928282                       # Writes before turning the bus around for reads
system.mem_ctrls0.wrPerTurnAround::stdev     0.411538                       # Writes before turning the bus around for reads
system.mem_ctrls0.wrPerTurnAround::16             100      3.10%      3.10% # Writes before turning the bus around for reads
system.mem_ctrls0.wrPerTurnAround::17              33      1.02%      4.13% # Writes before turning the bus around for reads
system.mem_ctrls0.wrPerTurnAround::18            3082     95.65%     99.78% # Writes before turning the bus around for reads
system.mem_ctrls0.wrPerTurnAround::19               6      0.19%     99.97% # Writes before turning the bus around for reads
system.mem_ctrls0.wrPerTurnAround::29               1      0.03%    100.00% # Writes before turning the bus around for reads
system.mem_ctrls0.wrPerTurnAround::total         3222                       # Writes before turning the bus around for reads
system.mem_ctrls0.totQLat                1087655667169                       # Total ticks spent queuing
system.mem_ctrls0.totMemAccLat           1786281585919                       # Total ticks spent from burst creation until serviced by the DRAM
system.mem_ctrls0.totBusLat              186300245000                       # Total ticks spent in databus transfers
system.mem_ctrls0.avgQLat                    29190.93                       # Average queueing delay per DRAM burst
system.mem_ctrls0.avgBusLat                   5000.00                       # Average bus latency per DRAM burst
system.mem_ctrls0.avgMemAccLat               47940.93                       # Average memory access latency per DRAM burst
system.mem_ctrls0.avgRdBW                      128.96                       # Average DRAM read bandwidth in MiByte/s
system.mem_ctrls0.avgWrBW                        0.20                       # Average achieved write bandwidth in MiByte/s
system.mem_ctrls0.avgRdBWSys                   128.99                       # Average system read bandwidth in MiByte/s
system.mem_ctrls0.avgWrBWSys                     0.20                       # Average system write bandwidth in MiByte/s
system.mem_ctrls0.peakBW                     12800.00                       # Theoretical peak bandwidth in MiByte/s
system.mem_ctrls0.busUtil                        1.01                       # Data bus utilization in percentage
system.mem_ctrls0.busUtilRead                    1.01                       # Data bus utilization in percentage for reads
system.mem_ctrls0.busUtilWrite                   0.00                       # Data bus utilization in percentage for writes
system.mem_ctrls0.avgRdQLen                      1.00                       # Average read queue length when enqueuing
system.mem_ctrls0.avgWrQLen                     24.50                       # Average write queue length when enqueuing
system.mem_ctrls0.readRowHits                   65590                       # Number of row buffer hits during reads
system.mem_ctrls0.writeRowHits                   9726                       # Number of row buffer hits during writes
system.mem_ctrls0.readRowHitRate                 0.18                       # Row buffer hit rate for reads
system.mem_ctrls0.writeRowHitRate               16.82                       # Row buffer hit rate for writes
system.mem_ctrls0.avgGap                    495390.98                       # Average gap between requests
system.mem_ctrls0.pageHitRate                    0.20                       # Row buffer hit rate, read and write combined
system.mem_ctrls0_0.actEnergy            133245658980                       # Energy for activate commands per rank (pJ)
system.mem_ctrls0_0.preEnergy             70821724545                       # Energy for precharge commands per rank (pJ)
system.mem_ctrls0_0.readEnergy           133308062580                       # Energy for read commands per rank (pJ)
system.mem_ctrls0_0.writeEnergy             157466520                       # Energy for write commands per rank (pJ)
system.mem_ctrls0_0.refreshEnergy        1459742955840.000244                       # Energy for refresh commands per rank (pJ)
system.mem_ctrls0_0.actBackEnergy        629077530870                       # Energy for active background per rank (pJ)
system.mem_ctrls0_0.preBackEnergy         32936286720                       # Energy for precharge background per rank (pJ)
system.mem_ctrls0_0.actPowerDownEnergy   7137292147470                       # Energy for active power-down per rank (pJ)
system.mem_ctrls0_0.prePowerDownEnergy   527486990400                       # Energy for precharge power-down per rank (pJ)
system.mem_ctrls0_0.selfRefreshEnergy       231074295                       # Energy for self refresh per rank (pJ)
system.mem_ctrls0_0.totalEnergy          10124300676210                       # Total energy per rank (pJ)
system.mem_ctrls0_0.averagePower           547.508876                       # Core power per rank (mW)
system.mem_ctrls0_0.totalIdleTime        17026818735381                       # Total Idle time Per DRAM Rank
system.mem_ctrls0_0.memoryStateTime::IDLE  14132948537                       # Time in different power states
system.mem_ctrls0_0.memoryStateTime::REF 617489490000                       # Time in different power states
system.mem_ctrls0_0.memoryStateTime::SREF    623789970                       # Time in different power states
system.mem_ctrls0_0.memoryStateTime::PRE_PDN 1373537466691                       # Time in different power states
system.mem_ctrls0_0.memoryStateTime::ACT 833131702904                       # Time in different power states
system.mem_ctrls0_0.memoryStateTime::ACT_PDN 15652658195797                       # Time in different power states
system.mem_ctrls0_1.actEnergy            132665883840                       # Energy for activate commands per rank (pJ)
system.mem_ctrls0_1.preEnergy             70513585725                       # Energy for precharge commands per rank (pJ)
system.mem_ctrls0_1.readEnergy           132728687280                       # Energy for read commands per rank (pJ)
system.mem_ctrls0_1.writeEnergy             144145080                       # Energy for write commands per rank (pJ)
system.mem_ctrls0_1.refreshEnergy        1459741726560.000244                       # Energy for refresh commands per rank (pJ)
system.mem_ctrls0_1.actBackEnergy        627256812360                       # Energy for active background per rank (pJ)
system.mem_ctrls0_1.preBackEnergy         32938362240                       # Energy for precharge background per rank (pJ)
system.mem_ctrls0_1.actPowerDownEnergy   7142040230940                       # Energy for active power-down per rank (pJ)
system.mem_ctrls0_1.prePowerDownEnergy   524931494880                       # Energy for precharge power-down per rank (pJ)
system.mem_ctrls0_1.selfRefreshEnergy       302199945                       # Energy for self refresh per rank (pJ)
system.mem_ctrls0_1.totalEnergy          10123263762330                       # Total energy per rank (pJ)
system.mem_ctrls0_1.averagePower           547.452801                       # Core power per rank (mW)
system.mem_ctrls0_1.totalIdleTime        17030401195867                       # Total Idle time Per DRAM Rank
system.mem_ctrls0_1.memoryStateTime::IDLE  14131804059                       # Time in different power states
system.mem_ctrls0_1.memoryStateTime::REF 617489162000                       # Time in different power states
system.mem_ctrls0_1.memoryStateTime::SREF    853991658                       # Time in different power states
system.mem_ctrls0_1.memoryStateTime::PRE_PDN 1367301679578                       # Time in different power states
system.mem_ctrls0_1.memoryStateTime::ACT 829550050894                       # Time in different power states
system.mem_ctrls0_1.memoryStateTime::ACT_PDN 15662246905710                       # Time in different power states
system.mem_ctrls1.pwrStateResidencyTicks::UNDEFINED 180573756756399                       # Cumulative time (in ticks) in various power states
system.mem_ctrls1.bytes_read::cpu.inst            128                       # Number of bytes read from this memory
system.mem_ctrls1.bytes_read::cpu.data             64                       # Number of bytes read from this memory
system.mem_ctrls1.bytes_read::switch_cpus.inst         1088                       # Number of bytes read from this memory
system.mem_ctrls1.bytes_read::switch_cpus.data   1988318912                       # Number of bytes read from this memory
system.mem_ctrls1.bytes_read::switch_cpus_1.inst          320                       # Number of bytes read from this memory
system.mem_ctrls1.bytes_read::switch_cpus_1.data    397236416                       # Number of bytes read from this memory
system.mem_ctrls1.bytes_read::total        2385556928                       # Number of bytes read from this memory
system.mem_ctrls1.bytes_inst_read::cpu.inst          128                       # Number of instructions bytes read from this memory
system.mem_ctrls1.bytes_inst_read::switch_cpus.inst         1088                       # Number of instructions bytes read from this memory
system.mem_ctrls1.bytes_inst_read::switch_cpus_1.inst          320                       # Number of instructions bytes read from this memory
system.mem_ctrls1.bytes_inst_read::total         1536                       # Number of instructions bytes read from this memory
system.mem_ctrls1.bytes_written::writebacks      3757440                       # Number of bytes written to this memory
system.mem_ctrls1.bytes_written::total        3757440                       # Number of bytes written to this memory
system.mem_ctrls1.num_reads::cpu.inst               2                       # Number of read requests responded to by this memory
system.mem_ctrls1.num_reads::cpu.data               1                       # Number of read requests responded to by this memory
system.mem_ctrls1.num_reads::switch_cpus.inst           17                       # Number of read requests responded to by this memory
system.mem_ctrls1.num_reads::switch_cpus.data     31067483                       # Number of read requests responded to by this memory
system.mem_ctrls1.num_reads::switch_cpus_1.inst            5                       # Number of read requests responded to by this memory
system.mem_ctrls1.num_reads::switch_cpus_1.data      6206819                       # Number of read requests responded to by this memory
system.mem_ctrls1.num_reads::total           37274327                       # Number of read requests responded to by this memory
system.mem_ctrls1.num_writes::writebacks        58710                       # Number of write requests responded to by this memory
system.mem_ctrls1.num_writes::total             58710                       # Number of write requests responded to by this memory
system.mem_ctrls1.bw_read::cpu.inst                 7                       # Total read bandwidth from this memory (bytes/s)
system.mem_ctrls1.bw_read::cpu.data                 3                       # Total read bandwidth from this memory (bytes/s)
system.mem_ctrls1.bw_read::switch_cpus.inst           59                       # Total read bandwidth from this memory (bytes/s)
system.mem_ctrls1.bw_read::switch_cpus.data    107525674                       # Total read bandwidth from this memory (bytes/s)
system.mem_ctrls1.bw_read::switch_cpus_1.inst           17                       # Total read bandwidth from this memory (bytes/s)
system.mem_ctrls1.bw_read::switch_cpus_1.data     21482023                       # Total read bandwidth from this memory (bytes/s)
system.mem_ctrls1.bw_read::total            129007784                       # Total read bandwidth from this memory (bytes/s)
system.mem_ctrls1.bw_inst_read::cpu.inst            7                       # Instruction read bandwidth from this memory (bytes/s)
system.mem_ctrls1.bw_inst_read::switch_cpus.inst           59                       # Instruction read bandwidth from this memory (bytes/s)
system.mem_ctrls1.bw_inst_read::switch_cpus_1.inst           17                       # Instruction read bandwidth from this memory (bytes/s)
system.mem_ctrls1.bw_inst_read::total              83                       # Instruction read bandwidth from this memory (bytes/s)
system.mem_ctrls1.bw_write::writebacks         203197                       # Write bandwidth from this memory (bytes/s)
system.mem_ctrls1.bw_write::total              203197                       # Write bandwidth from this memory (bytes/s)
system.mem_ctrls1.bw_total::writebacks         203197                       # Total bandwidth to/from this memory (bytes/s)
system.mem_ctrls1.bw_total::cpu.inst                7                       # Total bandwidth to/from this memory (bytes/s)
system.mem_ctrls1.bw_total::cpu.data                3                       # Total bandwidth to/from this memory (bytes/s)
system.mem_ctrls1.bw_total::switch_cpus.inst           59                       # Total bandwidth to/from this memory (bytes/s)
system.mem_ctrls1.bw_total::switch_cpus.data    107525674                       # Total bandwidth to/from this memory (bytes/s)
system.mem_ctrls1.bw_total::switch_cpus_1.inst           17                       # Total bandwidth to/from this memory (bytes/s)
system.mem_ctrls1.bw_total::switch_cpus_1.data     21482023                       # Total bandwidth to/from this memory (bytes/s)
system.mem_ctrls1.bw_total::total           129210981                       # Total bandwidth to/from this memory (bytes/s)
system.mem_ctrls1.readReqs                   37274327                       # Number of read requests accepted
system.mem_ctrls1.writeReqs                     58710                       # Number of write requests accepted
system.mem_ctrls1.readBursts                 37274327                       # Number of DRAM read bursts, including those serviced by the write queue
system.mem_ctrls1.writeBursts                   58710                       # Number of DRAM write bursts, including those merged in the write queue
system.mem_ctrls1.bytesReadDRAM            2385028416                       # Total number of bytes read from DRAM
system.mem_ctrls1.bytesReadWrQ                 528512                       # Total number of bytes read from write queue
system.mem_ctrls1.bytesWritten                3736000                       # Total number of bytes written to DRAM
system.mem_ctrls1.bytesReadSys             2385556928                       # Total read bytes from the system interface side
system.mem_ctrls1.bytesWrittenSys             3757440                       # Total written bytes from the system interface side
system.mem_ctrls1.servicedByWrQ                  8258                       # Number of DRAM read bursts serviced by the write queue
system.mem_ctrls1.mergedWrBursts                  320                       # Number of DRAM write bursts merged with an existing one
system.mem_ctrls1.neitherReadNorWriteReqs            0                       # Number of requests that are neither read nor write
system.mem_ctrls1.perBankRdBursts::0          2335903                       # Per bank write bursts
system.mem_ctrls1.perBankRdBursts::1          2326974                       # Per bank write bursts
system.mem_ctrls1.perBankRdBursts::2          2352078                       # Per bank write bursts
system.mem_ctrls1.perBankRdBursts::3          2340402                       # Per bank write bursts
system.mem_ctrls1.perBankRdBursts::4          2348640                       # Per bank write bursts
system.mem_ctrls1.perBankRdBursts::5          2336399                       # Per bank write bursts
system.mem_ctrls1.perBankRdBursts::6          2324702                       # Per bank write bursts
system.mem_ctrls1.perBankRdBursts::7          2328452                       # Per bank write bursts
system.mem_ctrls1.perBankRdBursts::8          2345002                       # Per bank write bursts
system.mem_ctrls1.perBankRdBursts::9          2317457                       # Per bank write bursts
system.mem_ctrls1.perBankRdBursts::10         2317007                       # Per bank write bursts
system.mem_ctrls1.perBankRdBursts::11         2324293                       # Per bank write bursts
system.mem_ctrls1.perBankRdBursts::12         2327098                       # Per bank write bursts
system.mem_ctrls1.perBankRdBursts::13         2315115                       # Per bank write bursts
system.mem_ctrls1.perBankRdBursts::14         2314469                       # Per bank write bursts
system.mem_ctrls1.perBankRdBursts::15         2312078                       # Per bank write bursts
system.mem_ctrls1.perBankWrBursts::0             3376                       # Per bank write bursts
system.mem_ctrls1.perBankWrBursts::1             3379                       # Per bank write bursts
system.mem_ctrls1.perBankWrBursts::2             3264                       # Per bank write bursts
system.mem_ctrls1.perBankWrBursts::3             4796                       # Per bank write bursts
system.mem_ctrls1.perBankWrBursts::4             5063                       # Per bank write bursts
system.mem_ctrls1.perBankWrBursts::5             3447                       # Per bank write bursts
system.mem_ctrls1.perBankWrBursts::6             3437                       # Per bank write bursts
system.mem_ctrls1.perBankWrBursts::7             3542                       # Per bank write bursts
system.mem_ctrls1.perBankWrBursts::8             3699                       # Per bank write bursts
system.mem_ctrls1.perBankWrBursts::9             3463                       # Per bank write bursts
system.mem_ctrls1.perBankWrBursts::10            3470                       # Per bank write bursts
system.mem_ctrls1.perBankWrBursts::11            3547                       # Per bank write bursts
system.mem_ctrls1.perBankWrBursts::12            3514                       # Per bank write bursts
system.mem_ctrls1.perBankWrBursts::13            3553                       # Per bank write bursts
system.mem_ctrls1.perBankWrBursts::14            3371                       # Per bank write bursts
system.mem_ctrls1.perBankWrBursts::15            3454                       # Per bank write bursts
system.mem_ctrls1.numRdRetry                        0                       # Number of times read queue was full causing retry
system.mem_ctrls1.numWrRetry                        0                       # Number of times write queue was full causing retry
system.mem_ctrls1.totGap                 18491573383866                       # Total gap between requests
system.mem_ctrls1.readPktSize::0                    0                       # Read request sizes (log2)
system.mem_ctrls1.readPktSize::1                    0                       # Read request sizes (log2)
system.mem_ctrls1.readPktSize::2                    0                       # Read request sizes (log2)
system.mem_ctrls1.readPktSize::3                    0                       # Read request sizes (log2)
system.mem_ctrls1.readPktSize::4                    0                       # Read request sizes (log2)
system.mem_ctrls1.readPktSize::5                    0                       # Read request sizes (log2)
system.mem_ctrls1.readPktSize::6             37274327                       # Read request sizes (log2)
system.mem_ctrls1.writePktSize::0                   0                       # Write request sizes (log2)
system.mem_ctrls1.writePktSize::1                   0                       # Write request sizes (log2)
system.mem_ctrls1.writePktSize::2                   0                       # Write request sizes (log2)
system.mem_ctrls1.writePktSize::3                   0                       # Write request sizes (log2)
system.mem_ctrls1.writePktSize::4                   0                       # Write request sizes (log2)
system.mem_ctrls1.writePktSize::5                   0                       # Write request sizes (log2)
system.mem_ctrls1.writePktSize::6               58710                       # Write request sizes (log2)
system.mem_ctrls1.rdQLenPdf::0               37264877                       # What read queue length does an incoming req see
system.mem_ctrls1.rdQLenPdf::1                   1167                       # What read queue length does an incoming req see
system.mem_ctrls1.rdQLenPdf::2                     25                       # What read queue length does an incoming req see
system.mem_ctrls1.rdQLenPdf::3                      0                       # What read queue length does an incoming req see
system.mem_ctrls1.rdQLenPdf::4                      0                       # What read queue length does an incoming req see
system.mem_ctrls1.rdQLenPdf::5                      0                       # What read queue length does an incoming req see
system.mem_ctrls1.rdQLenPdf::6                      0                       # What read queue length does an incoming req see
system.mem_ctrls1.rdQLenPdf::7                      0                       # What read queue length does an incoming req see
system.mem_ctrls1.rdQLenPdf::8                      0                       # What read queue length does an incoming req see
system.mem_ctrls1.rdQLenPdf::9                      0                       # What read queue length does an incoming req see
system.mem_ctrls1.rdQLenPdf::10                     0                       # What read queue length does an incoming req see
system.mem_ctrls1.rdQLenPdf::11                     0                       # What read queue length does an incoming req see
system.mem_ctrls1.rdQLenPdf::12                     0                       # What read queue length does an incoming req see
system.mem_ctrls1.rdQLenPdf::13                     0                       # What read queue length does an incoming req see
system.mem_ctrls1.rdQLenPdf::14                     0                       # What read queue length does an incoming req see
system.mem_ctrls1.rdQLenPdf::15                     0                       # What read queue length does an incoming req see
system.mem_ctrls1.rdQLenPdf::16                     0                       # What read queue length does an incoming req see
system.mem_ctrls1.rdQLenPdf::17                     0                       # What read queue length does an incoming req see
system.mem_ctrls1.rdQLenPdf::18                     0                       # What read queue length does an incoming req see
system.mem_ctrls1.rdQLenPdf::19                     0                       # What read queue length does an incoming req see
system.mem_ctrls1.rdQLenPdf::20                     0                       # What read queue length does an incoming req see
system.mem_ctrls1.rdQLenPdf::21                     0                       # What read queue length does an incoming req see
system.mem_ctrls1.rdQLenPdf::22                     0                       # What read queue length does an incoming req see
system.mem_ctrls1.rdQLenPdf::23                     0                       # What read queue length does an incoming req see
system.mem_ctrls1.rdQLenPdf::24                     0                       # What read queue length does an incoming req see
system.mem_ctrls1.rdQLenPdf::25                     0                       # What read queue length does an incoming req see
system.mem_ctrls1.rdQLenPdf::26                     0                       # What read queue length does an incoming req see
system.mem_ctrls1.rdQLenPdf::27                     0                       # What read queue length does an incoming req see
system.mem_ctrls1.rdQLenPdf::28                     0                       # What read queue length does an incoming req see
system.mem_ctrls1.rdQLenPdf::29                     0                       # What read queue length does an incoming req see
system.mem_ctrls1.rdQLenPdf::30                     0                       # What read queue length does an incoming req see
system.mem_ctrls1.rdQLenPdf::31                     0                       # What read queue length does an incoming req see
system.mem_ctrls1.wrQLenPdf::0                      2                       # What write queue length does an incoming req see
system.mem_ctrls1.wrQLenPdf::1                      2                       # What write queue length does an incoming req see
system.mem_ctrls1.wrQLenPdf::2                      2                       # What write queue length does an incoming req see
system.mem_ctrls1.wrQLenPdf::3                      2                       # What write queue length does an incoming req see
system.mem_ctrls1.wrQLenPdf::4                      2                       # What write queue length does an incoming req see
system.mem_ctrls1.wrQLenPdf::5                      2                       # What write queue length does an incoming req see
system.mem_ctrls1.wrQLenPdf::6                      2                       # What write queue length does an incoming req see
system.mem_ctrls1.wrQLenPdf::7                      2                       # What write queue length does an incoming req see
system.mem_ctrls1.wrQLenPdf::8                      2                       # What write queue length does an incoming req see
system.mem_ctrls1.wrQLenPdf::9                      2                       # What write queue length does an incoming req see
system.mem_ctrls1.wrQLenPdf::10                     2                       # What write queue length does an incoming req see
system.mem_ctrls1.wrQLenPdf::11                     2                       # What write queue length does an incoming req see
system.mem_ctrls1.wrQLenPdf::12                     2                       # What write queue length does an incoming req see
system.mem_ctrls1.wrQLenPdf::13                     2                       # What write queue length does an incoming req see
system.mem_ctrls1.wrQLenPdf::14                     2                       # What write queue length does an incoming req see
system.mem_ctrls1.wrQLenPdf::15                  3126                       # What write queue length does an incoming req see
system.mem_ctrls1.wrQLenPdf::16                  3166                       # What write queue length does an incoming req see
system.mem_ctrls1.wrQLenPdf::17                  3255                       # What write queue length does an incoming req see
system.mem_ctrls1.wrQLenPdf::18                  3254                       # What write queue length does an incoming req see
system.mem_ctrls1.wrQLenPdf::19                  3254                       # What write queue length does an incoming req see
system.mem_ctrls1.wrQLenPdf::20                  3254                       # What write queue length does an incoming req see
system.mem_ctrls1.wrQLenPdf::21                  3254                       # What write queue length does an incoming req see
system.mem_ctrls1.wrQLenPdf::22                  3254                       # What write queue length does an incoming req see
system.mem_ctrls1.wrQLenPdf::23                  3261                       # What write queue length does an incoming req see
system.mem_ctrls1.wrQLenPdf::24                  3255                       # What write queue length does an incoming req see
system.mem_ctrls1.wrQLenPdf::25                  3254                       # What write queue length does an incoming req see
system.mem_ctrls1.wrQLenPdf::26                  3254                       # What write queue length does an incoming req see
system.mem_ctrls1.wrQLenPdf::27                  3254                       # What write queue length does an incoming req see
system.mem_ctrls1.wrQLenPdf::28                  3253                       # What write queue length does an incoming req see
system.mem_ctrls1.wrQLenPdf::29                  3253                       # What write queue length does an incoming req see
system.mem_ctrls1.wrQLenPdf::30                  3253                       # What write queue length does an incoming req see
system.mem_ctrls1.wrQLenPdf::31                  3253                       # What write queue length does an incoming req see
system.mem_ctrls1.wrQLenPdf::32                  3253                       # What write queue length does an incoming req see
system.mem_ctrls1.wrQLenPdf::33                     0                       # What write queue length does an incoming req see
system.mem_ctrls1.wrQLenPdf::34                     0                       # What write queue length does an incoming req see
system.mem_ctrls1.wrQLenPdf::35                     0                       # What write queue length does an incoming req see
system.mem_ctrls1.wrQLenPdf::36                     0                       # What write queue length does an incoming req see
system.mem_ctrls1.wrQLenPdf::37                     0                       # What write queue length does an incoming req see
system.mem_ctrls1.wrQLenPdf::38                     0                       # What write queue length does an incoming req see
system.mem_ctrls1.wrQLenPdf::39                     0                       # What write queue length does an incoming req see
system.mem_ctrls1.wrQLenPdf::40                     0                       # What write queue length does an incoming req see
system.mem_ctrls1.wrQLenPdf::41                     0                       # What write queue length does an incoming req see
system.mem_ctrls1.wrQLenPdf::42                     0                       # What write queue length does an incoming req see
system.mem_ctrls1.wrQLenPdf::43                     0                       # What write queue length does an incoming req see
system.mem_ctrls1.wrQLenPdf::44                     0                       # What write queue length does an incoming req see
system.mem_ctrls1.wrQLenPdf::45                     0                       # What write queue length does an incoming req see
system.mem_ctrls1.wrQLenPdf::46                     0                       # What write queue length does an incoming req see
system.mem_ctrls1.wrQLenPdf::47                     0                       # What write queue length does an incoming req see
system.mem_ctrls1.wrQLenPdf::48                     0                       # What write queue length does an incoming req see
system.mem_ctrls1.wrQLenPdf::49                     0                       # What write queue length does an incoming req see
system.mem_ctrls1.wrQLenPdf::50                     0                       # What write queue length does an incoming req see
system.mem_ctrls1.wrQLenPdf::51                     0                       # What write queue length does an incoming req see
system.mem_ctrls1.wrQLenPdf::52                     0                       # What write queue length does an incoming req see
system.mem_ctrls1.wrQLenPdf::53                     0                       # What write queue length does an incoming req see
system.mem_ctrls1.wrQLenPdf::54                     0                       # What write queue length does an incoming req see
system.mem_ctrls1.wrQLenPdf::55                     0                       # What write queue length does an incoming req see
system.mem_ctrls1.wrQLenPdf::56                     0                       # What write queue length does an incoming req see
system.mem_ctrls1.wrQLenPdf::57                     0                       # What write queue length does an incoming req see
system.mem_ctrls1.wrQLenPdf::58                     0                       # What write queue length does an incoming req see
system.mem_ctrls1.wrQLenPdf::59                     0                       # What write queue length does an incoming req see
system.mem_ctrls1.wrQLenPdf::60                     0                       # What write queue length does an incoming req see
system.mem_ctrls1.wrQLenPdf::61                     0                       # What write queue length does an incoming req see
system.mem_ctrls1.wrQLenPdf::62                     0                       # What write queue length does an incoming req see
system.mem_ctrls1.wrQLenPdf::63                     0                       # What write queue length does an incoming req see
system.mem_ctrls1.bytesPerActivate::samples     37249064                       # Bytes accessed per row activation
system.mem_ctrls1.bytesPerActivate::mean    64.129501                       # Bytes accessed per row activation
system.mem_ctrls1.bytesPerActivate::gmean    64.078262                       # Bytes accessed per row activation
system.mem_ctrls1.bytesPerActivate::stdev     4.024192                       # Bytes accessed per row activation
system.mem_ctrls1.bytesPerActivate::0-127     37192215     99.85%     99.85% # Bytes accessed per row activation
system.mem_ctrls1.bytesPerActivate::128-255        52720      0.14%     99.99% # Bytes accessed per row activation
system.mem_ctrls1.bytesPerActivate::256-383         3143      0.01%    100.00% # Bytes accessed per row activation
system.mem_ctrls1.bytesPerActivate::384-511          686      0.00%    100.00% # Bytes accessed per row activation
system.mem_ctrls1.bytesPerActivate::512-639          191      0.00%    100.00% # Bytes accessed per row activation
system.mem_ctrls1.bytesPerActivate::640-767           75      0.00%    100.00% # Bytes accessed per row activation
system.mem_ctrls1.bytesPerActivate::768-895           28      0.00%    100.00% # Bytes accessed per row activation
system.mem_ctrls1.bytesPerActivate::896-1023            2      0.00%    100.00% # Bytes accessed per row activation
system.mem_ctrls1.bytesPerActivate::1024-1151            4      0.00%    100.00% # Bytes accessed per row activation
system.mem_ctrls1.bytesPerActivate::total     37249064                       # Bytes accessed per row activation
system.mem_ctrls1.rdPerTurnAround::samples         3254                       # Reads before turning the bus around for writes
system.mem_ctrls1.rdPerTurnAround::mean  11445.227412                       # Reads before turning the bus around for writes
system.mem_ctrls1.rdPerTurnAround::gmean   290.123174                       # Reads before turning the bus around for writes
system.mem_ctrls1.rdPerTurnAround::stdev 100241.101551                       # Reads before turning the bus around for writes
system.mem_ctrls1.rdPerTurnAround::0-131071         3206     98.52%     98.52% # Reads before turning the bus around for writes
system.mem_ctrls1.rdPerTurnAround::131072-262143           19      0.58%     99.11% # Reads before turning the bus around for writes
system.mem_ctrls1.rdPerTurnAround::262144-393215            6      0.18%     99.29% # Reads before turning the bus around for writes
system.mem_ctrls1.rdPerTurnAround::393216-524287            5      0.15%     99.45% # Reads before turning the bus around for writes
system.mem_ctrls1.rdPerTurnAround::524288-655359            5      0.15%     99.60% # Reads before turning the bus around for writes
system.mem_ctrls1.rdPerTurnAround::655360-786431            4      0.12%     99.72% # Reads before turning the bus around for writes
system.mem_ctrls1.rdPerTurnAround::786432-917503            1      0.03%     99.75% # Reads before turning the bus around for writes
system.mem_ctrls1.rdPerTurnAround::917504-1.04858e+06            1      0.03%     99.78% # Reads before turning the bus around for writes
system.mem_ctrls1.rdPerTurnAround::1.17965e+06-1.31072e+06            1      0.03%     99.82% # Reads before turning the bus around for writes
system.mem_ctrls1.rdPerTurnAround::1.31072e+06-1.44179e+06            2      0.06%     99.88% # Reads before turning the bus around for writes
system.mem_ctrls1.rdPerTurnAround::1.44179e+06-1.57286e+06            1      0.03%     99.91% # Reads before turning the bus around for writes
system.mem_ctrls1.rdPerTurnAround::1.70394e+06-1.83501e+06            1      0.03%     99.94% # Reads before turning the bus around for writes
system.mem_ctrls1.rdPerTurnAround::2.22822e+06-2.3593e+06            1      0.03%     99.97% # Reads before turning the bus around for writes
system.mem_ctrls1.rdPerTurnAround::2.88358e+06-3.01466e+06            1      0.03%    100.00% # Reads before turning the bus around for writes
system.mem_ctrls1.rdPerTurnAround::total         3254                       # Reads before turning the bus around for writes
system.mem_ctrls1.wrPerTurnAround::samples         3254                       # Writes before turning the bus around for reads
system.mem_ctrls1.wrPerTurnAround::mean     17.939459                       # Writes before turning the bus around for reads
system.mem_ctrls1.wrPerTurnAround::gmean    17.935287                       # Writes before turning the bus around for reads
system.mem_ctrls1.wrPerTurnAround::stdev     0.386950                       # Writes before turning the bus around for reads
system.mem_ctrls1.wrPerTurnAround::16              88      2.70%      2.70% # Writes before turning the bus around for reads
system.mem_ctrls1.wrPerTurnAround::17              39      1.20%      3.90% # Writes before turning the bus around for reads
system.mem_ctrls1.wrPerTurnAround::18            3118     95.82%     99.72% # Writes before turning the bus around for reads
system.mem_ctrls1.wrPerTurnAround::19               8      0.25%     99.97% # Writes before turning the bus around for reads
system.mem_ctrls1.wrPerTurnAround::28               1      0.03%    100.00% # Writes before turning the bus around for reads
system.mem_ctrls1.wrPerTurnAround::total         3254                       # Writes before turning the bus around for reads
system.mem_ctrls1.totQLat                1089380642037                       # Total ticks spent queuing
system.mem_ctrls1.totMemAccLat           1788119435787                       # Total ticks spent from burst creation until serviced by the DRAM
system.mem_ctrls1.totBusLat              186330345000                       # Total ticks spent in databus transfers
system.mem_ctrls1.avgQLat                    29232.51                       # Average queueing delay per DRAM burst
system.mem_ctrls1.avgBusLat                   5000.00                       # Average bus latency per DRAM burst
system.mem_ctrls1.avgMemAccLat               47982.51                       # Average memory access latency per DRAM burst
system.mem_ctrls1.avgRdBW                      128.98                       # Average DRAM read bandwidth in MiByte/s
system.mem_ctrls1.avgWrBW                        0.20                       # Average achieved write bandwidth in MiByte/s
system.mem_ctrls1.avgRdBWSys                   129.01                       # Average system read bandwidth in MiByte/s
system.mem_ctrls1.avgWrBWSys                     0.20                       # Average system write bandwidth in MiByte/s
system.mem_ctrls1.peakBW                     12800.00                       # Theoretical peak bandwidth in MiByte/s
system.mem_ctrls1.busUtil                        1.01                       # Data bus utilization in percentage
system.mem_ctrls1.busUtilRead                    1.01                       # Data bus utilization in percentage for reads
system.mem_ctrls1.busUtilWrite                   0.00                       # Data bus utilization in percentage for writes
system.mem_ctrls1.avgRdQLen                      1.00                       # Average read queue length when enqueuing
system.mem_ctrls1.avgWrQLen                     24.06                       # Average write queue length when enqueuing
system.mem_ctrls1.readRowHits                   65669                       # Number of row buffer hits during reads
system.mem_ctrls1.writeRowHits                   9703                       # Number of row buffer hits during writes
system.mem_ctrls1.readRowHitRate                 0.18                       # Row buffer hit rate for reads
system.mem_ctrls1.writeRowHitRate               16.62                       # Row buffer hit rate for writes
system.mem_ctrls1.avgGap                    495313.93                       # Average gap between requests
system.mem_ctrls1.pageHitRate                    0.20                       # Row buffer hit rate, read and write combined
system.mem_ctrls1_0.actEnergy            133410928560                       # Energy for activate commands per rank (pJ)
system.mem_ctrls1_0.preEnergy             70909578795                       # Energy for precharge commands per rank (pJ)
system.mem_ctrls1_0.readEnergy           133471947000                       # Energy for read commands per rank (pJ)
system.mem_ctrls1_0.writeEnergy             158186880                       # Energy for write commands per rank (pJ)
system.mem_ctrls1_0.refreshEnergy        1459737424080.000244                       # Energy for refresh commands per rank (pJ)
system.mem_ctrls1_0.actBackEnergy        629584960830                       # Energy for active background per rank (pJ)
system.mem_ctrls1_0.preBackEnergy         32971674240                       # Energy for precharge background per rank (pJ)
system.mem_ctrls1_0.actPowerDownEnergy   7141252371810                       # Energy for active power-down per rank (pJ)
system.mem_ctrls1_0.prePowerDownEnergy   523628972640                       # Energy for precharge power-down per rank (pJ)
system.mem_ctrls1_0.selfRefreshEnergy       275418870                       # Energy for self refresh per rank (pJ)
system.mem_ctrls1_0.totalEnergy          10125402028935                       # Total energy per rank (pJ)
system.mem_ctrls1_0.averagePower           547.568436                       # Core power per rank (mW)
system.mem_ctrls1_0.totalIdleTime        17025697371882                       # Total Idle time Per DRAM Rank
system.mem_ctrls1_0.memoryStateTime::IDLE  14122604364                       # Time in different power states
system.mem_ctrls1_0.memoryStateTime::REF 617487198000                       # Time in different power states
system.mem_ctrls1_0.memoryStateTime::SREF    781543888                       # Time in different power states
system.mem_ctrls1_0.memoryStateTime::PRE_PDN 1363972817789                       # Time in different power states
system.mem_ctrls1_0.memoryStateTime::ACT 834264408538                       # Time in different power states
system.mem_ctrls1_0.memoryStateTime::ACT_PDN 15660945021320                       # Time in different power states
system.mem_ctrls1_1.actEnergy            132547445520                       # Energy for activate commands per rank (pJ)
system.mem_ctrls1_1.preEnergy             70450619085                       # Energy for precharge commands per rank (pJ)
system.mem_ctrls1_1.readEnergy           132607785660                       # Energy for read commands per rank (pJ)
system.mem_ctrls1_1.writeEnergy             146530620                       # Energy for write commands per rank (pJ)
system.mem_ctrls1_1.refreshEnergy        1459735580160.000244                       # Energy for refresh commands per rank (pJ)
system.mem_ctrls1_1.actBackEnergy        627011938650                       # Energy for active background per rank (pJ)
system.mem_ctrls1_1.preBackEnergy         33017711040                       # Energy for precharge background per rank (pJ)
system.mem_ctrls1_1.actPowerDownEnergy   7144616914800                       # Energy for active power-down per rank (pJ)
system.mem_ctrls1_1.prePowerDownEnergy   522945731520                       # Energy for precharge power-down per rank (pJ)
system.mem_ctrls1_1.selfRefreshEnergy       249291900                       # Energy for self refresh per rank (pJ)
system.mem_ctrls1_1.totalEnergy          10123330109715                       # Total energy per rank (pJ)
system.mem_ctrls1_1.averagePower           547.456389                       # Core power per rank (mW)
system.mem_ctrls1_1.totalIdleTime        17031226484869                       # Total Idle time Per DRAM Rank
system.mem_ctrls1_1.memoryStateTime::IDLE  14112702480                       # Time in different power states
system.mem_ctrls1_1.memoryStateTime::REF 617486388000                       # Time in different power states
system.mem_ctrls1_1.memoryStateTime::SREF    705146816                       # Time in different power states
system.mem_ctrls1_1.memoryStateTime::PRE_PDN 1362029000401                       # Time in different power states
system.mem_ctrls1_1.memoryStateTime::ACT 828747862245                       # Time in different power states
system.mem_ctrls1_1.memoryStateTime::ACT_PDN 15668492493957                       # Time in different power states
system.pwrStateResidencyTicks::UNDEFINED 180573756756399                       # Cumulative time (in ticks) in various power states
system.cpu.branchPred.lookups                      14                       # Number of BP lookups
system.cpu.branchPred.condPredicted                14                       # Number of conditional branches predicted
system.cpu.branchPred.condIncorrect                 4                       # Number of conditional branches incorrect
system.cpu.branchPred.BTBLookups                    0                       # Number of BTB lookups
system.cpu.branchPred.BTBHits                       0                       # Number of BTB hits
system.cpu.branchPred.BTBCorrect                    0                       # Number of correct BTB predictions (this stat may not work properly.
system.cpu.branchPred.BTBHitPct                   nan                       # BTB Hit Percentage
system.cpu.branchPred.usedRAS                       0                       # Number of times the RAS was used to get a target.
system.cpu.branchPred.RASInCorrect                  0                       # Number of incorrect RAS predictions.
system.cpu.branchPred.indirectLookups               0                       # Number of indirect predictor lookups.
system.cpu.branchPred.indirectHits                  0                       # Number of indirect target hits.
system.cpu.branchPred.indirectMisses                0                       # Number of indirect misses.
system.cpu.branchPredindirectMispredicted            0                       # Number of mispredicted indirect branches.
system.cpu_voltage_domain.voltage                   1                       # Voltage in Volts
system.cpu_clk_domain.clock                       333                       # Clock period in ticks
system.cpu.dtb.fetch_hits                           0                       # ITB hits
system.cpu.dtb.fetch_misses                         0                       # ITB misses
system.cpu.dtb.fetch_acv                            0                       # ITB acv
system.cpu.dtb.fetch_accesses                       0                       # ITB accesses
system.cpu.dtb.read_hits                            1                       # DTB read hits
system.cpu.dtb.read_misses                         11                       # DTB read misses
system.cpu.dtb.read_acv                             0                       # DTB read access violations
system.cpu.dtb.read_accesses                       12                       # DTB read accesses
system.cpu.dtb.write_hits                           0                       # DTB write hits
system.cpu.dtb.write_misses                         0                       # DTB write misses
system.cpu.dtb.write_acv                            0                       # DTB write access violations
system.cpu.dtb.write_accesses                       0                       # DTB write accesses
system.cpu.dtb.data_hits                            1                       # DTB hits
system.cpu.dtb.data_misses                         11                       # DTB misses
system.cpu.dtb.data_acv                             0                       # DTB access violations
system.cpu.dtb.data_accesses                       12                       # DTB accesses
system.cpu.itb.fetch_hits                          13                       # ITB hits
system.cpu.itb.fetch_misses                         0                       # ITB misses
system.cpu.itb.fetch_acv                            0                       # ITB acv
system.cpu.itb.fetch_accesses                      13                       # ITB accesses
system.cpu.itb.read_hits                            0                       # DTB read hits
system.cpu.itb.read_misses                          0                       # DTB read misses
system.cpu.itb.read_acv                             0                       # DTB read access violations
system.cpu.itb.read_accesses                        0                       # DTB read accesses
system.cpu.itb.write_hits                           0                       # DTB write hits
system.cpu.itb.write_misses                         0                       # DTB write misses
system.cpu.itb.write_acv                            0                       # DTB write access violations
system.cpu.itb.write_accesses                       0                       # DTB write accesses
system.cpu.itb.data_hits                            0                       # DTB hits
system.cpu.itb.data_misses                          0                       # DTB misses
system.cpu.itb.data_acv                             0                       # DTB access violations
system.cpu.itb.data_accesses                        0                       # DTB accesses
system.cpu.workload.num_syscalls                    0                       # Number of system calls
system.cpu.pwrStateResidencyTicks::ON    18491573593899                       # Cumulative time (in ticks) in various power states
system.cpu.numCycles                             1006                       # number of cpu cycles simulated
system.cpu.numWorkItemsStarted                      0                       # number of work items this cpu started
system.cpu.numWorkItemsCompleted                    0                       # number of work items this cpu completed
system.cpu.fetch.icacheStallCycles                 66                       # Number of cycles fetch is stalled on an Icache miss
[...]
system.switch_cpus_1.iq.FU_type_0::total   1853171151                       # Type of FU issued
system.switch_cpus_1.iq.rate                 0.191317                       # Inst issue rate
system.switch_cpus_1.iq.fu_busy_cnt              4357                       # FU busy when requested
system.switch_cpus_1.iq.fu_busy_rate         0.000002                       # FU busy rate (busy events/executed inst)
system.switch_cpus_1.iq.int_inst_queue_reads  13392729333                       # Number of integer instruction queue reads
system.switch_cpus_1.iq.int_inst_queue_writes   6295555802                       # Number of integer instruction queue writes
system.switch_cpus_1.iq.int_inst_queue_wakeup_accesses   1164806282                       # Number of integer instruction queue wakeup accesses
system.switch_cpus_1.iq.fp_inst_queue_reads            0                       # Number of floating instruction queue reads
system.switch_cpus_1.iq.fp_inst_queue_writes            0                       # Number of floating instruction queue writes
system.switch_cpus_1.iq.fp_inst_queue_wakeup_accesses            0                       # Number of floating instruction queue wakeup accesses
system.switch_cpus_1.iq.int_alu_accesses   1853175508                       # Number of integer alu accesses
system.switch_cpus_1.iq.fp_alu_accesses             0                       # Number of floating point alu accesses
system.switch_cpus_1.iew.lsq.thread0.forwLoads          944                       # Number of loads that had data forwarded from stores
system.switch_cpus_1.iew.lsq.thread0.invAddrLoads            0                       # Number of loads ignored due to an invalid address
system.switch_cpus_1.iew.lsq.thread0.squashedLoads   1004046791                       # Number of loads squashed
system.switch_cpus_1.iew.lsq.thread0.ignoredResponses           19                       # Number of memory responses ignored because the instruction is squashed
system.switch_cpus_1.iew.lsq.thread0.memOrderViolation           31                       # Number of memory ordering violations
system.switch_cpus_1.iew.lsq.thread0.squashedStores       136237                       # Number of stores squashed
system.switch_cpus_1.iew.lsq.thread0.invAddrSwpfs            0                       # Number of software prefetches ignored due to an invalid address
system.switch_cpus_1.iew.lsq.thread0.blockedLoads            0                       # Number of blocked loads due to partial load-store forwarding
system.switch_cpus_1.iew.lsq.thread0.rescheduledLoads            0                       # Number of loads that were rescheduled
system.switch_cpus_1.iew.lsq.thread0.cacheBlocked         6984                       # Number of times an access to memory failed due to the cache being blocked
system.switch_cpus_1.iew.iewIdleCycles              0                       # Number of cycles IEW is idle
system.switch_cpus_1.iew.iewSquashCycles     33186873                       # Number of cycles IEW is squashing
system.switch_cpus_1.iew.iewBlockCycles    8549539323                       # Number of cycles IEW is blocking
system.switch_cpus_1.iew.iewUnblockCycles     40971985                       # Number of cycles IEW is unblocking
system.switch_cpus_1.iew.iewDispatchedInsts   3247796553                       # Number of instructions dispatched to IQ
system.switch_cpus_1.iew.iewDispSquashedInsts         4541                       # Number of squashed instructions skipped by dispatch
system.switch_cpus_1.iew.iewDispLoadInsts   1068300972                       # Number of dispatched load instructions
system.switch_cpus_1.iew.iewDispStoreInsts       148564                       # Number of dispatched store instructions
system.switch_cpus_1.iew.iewDispNonSpecInsts            0                       # Number of dispatched non-speculative instructions
system.switch_cpus_1.iew.iewIQFullEvents     19174916                       # Number of times the IQ has become full, causing a stall
system.switch_cpus_1.iew.iewLSQFullEvents      3932990                       # Number of times the LSQ has become full, causing a stall
system.switch_cpus_1.iew.memOrderViolationEvents           31                       # Number of memory order violations
system.switch_cpus_1.iew.predictedTakenIncorrect      1685560                       # Number of branches that were predicted taken incorrectly
system.switch_cpus_1.iew.predictedNotTakenIncorrect      2826052                       # Number of branches that were predicted not taken incorrectly
system.switch_cpus_1.iew.branchMispredicts      4511612                       # Number of branch mispredicts detected at execute
system.switch_cpus_1.iew.iewExecutedInsts   1848993907                       # Number of executed instructions
system.switch_cpus_1.iew.iewExecLoadInsts    748520263                       # Number of load instructions executed
system.switch_cpus_1.iew.iewExecSquashedInsts      4177242                       # Number of squashed instructions skipped in execute
system.switch_cpus_1.iew.exec_swp                   0                       # number of swp insts executed
system.switch_cpus_1.iew.exec_nop               18618                       # number of nop insts executed
system.switch_cpus_1.iew.exec_refs          748542708                       # number of memory reference insts executed
system.switch_cpus_1.iew.exec_branches      219708027                       # Number of branches executed
system.switch_cpus_1.iew.exec_stores            22445                       # Number of stores executed
system.switch_cpus_1.iew.exec_rate           0.190886                       # Inst execution rate
system.switch_cpus_1.iew.wb_sent           1848079655                       # cumulative count of insts sent to commit
system.switch_cpus_1.iew.wb_count          1164806282                       # cumulative count of insts written-back
system.switch_cpus_1.iew.wb_producers       670547962                       # num instructions producing a value
system.switch_cpus_1.iew.wb_consumers       923450986                       # num instructions consuming a value
system.switch_cpus_1.iew.wb_rate             0.120252                       # insts written-back per cycle
system.switch_cpus_1.iew.wb_fanout           0.726133                       # average fanout of values written-back
system.switch_cpus_1.commit.commitSquashedInsts   2816135900                       # The number of squashed insts skipped by commit
system.switch_cpus_1.commit.branchMispredicts      4334002                       # The number of times a branch was mispredicted
system.switch_cpus_1.commit.committed_per_cycle::samples   9321772335                       # Number of insts commited each cycle
system.switch_cpus_1.commit.committed_per_cycle::mean     0.021455                       # Number of insts commited each cycle
system.switch_cpus_1.commit.committed_per_cycle::stdev     0.274658                       # Number of insts commited each cycle
system.switch_cpus_1.commit.committed_per_cycle::underflows            0      0.00%      0.00% # Number of insts commited each cycle
system.switch_cpus_1.commit.committed_per_cycle::0   9219445641     98.90%     98.90% # Number of insts commited each cycle
system.switch_cpus_1.commit.committed_per_cycle::1     55551253      0.60%     99.50% # Number of insts commited each cycle
system.switch_cpus_1.commit.committed_per_cycle::2     32104116      0.34%     99.84% # Number of insts commited each cycle
system.switch_cpus_1.commit.committed_per_cycle::3      6061845      0.07%     99.91% # Number of insts commited each cycle
system.switch_cpus_1.commit.committed_per_cycle::4      1675155      0.02%     99.93% # Number of insts commited each cycle
system.switch_cpus_1.commit.committed_per_cycle::5        24079      0.00%     99.93% # Number of insts commited each cycle
system.switch_cpus_1.commit.committed_per_cycle::6         3213      0.00%     99.93% # Number of insts commited each cycle
system.switch_cpus_1.commit.committed_per_cycle::7        39848      0.00%     99.93% # Number of insts commited each cycle
system.switch_cpus_1.commit.committed_per_cycle::8      6867185      0.07%    100.00% # Number of insts commited each cycle
system.switch_cpus_1.commit.committed_per_cycle::overflows            0      0.00%    100.00% # Number of insts commited each cycle
system.switch_cpus_1.commit.committed_per_cycle::min_value            0                       # Number of insts commited each cycle
system.switch_cpus_1.commit.committed_per_cycle::max_value            8                       # Number of insts commited each cycle
system.switch_cpus_1.commit.committed_per_cycle::total   9321772335                       # Number of insts commited each cycle
system.switch_cpus_1.commit.committedInsts    200001729                       # Number of instructions committed
system.switch_cpus_1.commit.committedOps    200001729                       # Number of ops (including micro ops) committed
system.switch_cpus_1.commit.swp_count               0                       # Number of s/w prefetches committed
system.switch_cpus_1.commit.refs             64266478                       # Number of memory references committed
system.switch_cpus_1.commit.loads            64254151                       # Number of loads committed
system.switch_cpus_1.commit.membars                 0                       # Number of memory barriers committed
system.switch_cpus_1.commit.branches         49624817                       # Number of branches committed
system.switch_cpus_1.commit.fp_insts                0                       # Number of committed floating point instructions.
system.switch_cpus_1.commit.int_insts       199961763                       # Number of committed integer instructions.
system.switch_cpus_1.commit.function_calls          438                       # Number of function calls committed.
system.switch_cpus_1.commit.op_class_0::No_OpClass         1722      0.00%      0.00% # Class of committed instruction
system.switch_cpus_1.commit.op_class_0::IntAlu    135733506     67.87%     67.87% # Class of committed instruction
system.switch_cpus_1.commit.op_class_0::IntMult           23      0.00%     67.87% # Class of committed instruction
system.switch_cpus_1.commit.op_class_0::IntDiv            0      0.00%     67.87% # Class of committed instruction
system.switch_cpus_1.commit.op_class_0::FloatAdd            0      0.00%     67.87% # Class of committed instruction
system.switch_cpus_1.commit.op_class_0::FloatCmp            0      0.00%     67.87% # Class of committed instruction
system.switch_cpus_1.commit.op_class_0::FloatCvt            0      0.00%     67.87% # Class of committed instruction
system.switch_cpus_1.commit.op_class_0::FloatMult            0      0.00%     67.87% # Class of committed instruction
system.switch_cpus_1.commit.op_class_0::FloatMultAcc            0      0.00%     67.87% # Class of committed instruction
system.switch_cpus_1.commit.op_class_0::FloatDiv            0      0.00%     67.87% # Class of committed instruction
system.switch_cpus_1.commit.op_class_0::FloatMisc            0      0.00%     67.87% # Class of committed instruction
system.switch_cpus_1.commit.op_class_0::FloatSqrt            0      0.00%     67.87% # Class of committed instruction
system.switch_cpus_1.commit.op_class_0::SimdAdd            0      0.00%     67.87% # Class of committed instruction
system.switch_cpus_1.commit.op_class_0::SimdAddAcc            0      0.00%     67.87% # Class of committed instruction
system.switch_cpus_1.commit.op_class_0::SimdAlu            0      0.00%     67.87% # Class of committed instruction
system.switch_cpus_1.commit.op_class_0::SimdCmp            0      0.00%     67.87% # Class of committed instruction
system.switch_cpus_1.commit.op_class_0::SimdCvt            0      0.00%     67.87% # Class of committed instruction
system.switch_cpus_1.commit.op_class_0::SimdMisc            0      0.00%     67.87% # Class of committed instruction
system.switch_cpus_1.commit.op_class_0::SimdMult            0      0.00%     67.87% # Class of committed instruction
system.switch_cpus_1.commit.op_class_0::SimdMultAcc            0      0.00%     67.87% # Class of committed instruction
system.switch_cpus_1.commit.op_class_0::SimdShift            0      0.00%     67.87% # Class of committed instruction
system.switch_cpus_1.commit.op_class_0::SimdShiftAcc            0      0.00%     67.87% # Class of committed instruction
system.switch_cpus_1.commit.op_class_0::SimdSqrt            0      0.00%     67.87% # Class of committed instruction
system.switch_cpus_1.commit.op_class_0::SimdFloatAdd            0      0.00%     67.87% # Class of committed instruction
system.switch_cpus_1.commit.op_class_0::SimdFloatAlu            0      0.00%     67.87% # Class of committed instruction
system.switch_cpus_1.commit.op_class_0::SimdFloatCmp            0      0.00%     67.87% # Class of committed instruction
system.switch_cpus_1.commit.op_class_0::SimdFloatCvt            0      0.00%     67.87% # Class of committed instruction
system.switch_cpus_1.commit.op_class_0::SimdFloatDiv            0      0.00%     67.87% # Class of committed instruction
system.switch_cpus_1.commit.op_class_0::SimdFloatMisc            0      0.00%     67.87% # Class of committed instruction
system.switch_cpus_1.commit.op_class_0::SimdFloatMult            0      0.00%     67.87% # Class of committed instruction
system.switch_cpus_1.commit.op_class_0::SimdFloatMultAcc            0      0.00%     67.87% # Class of committed instruction
system.switch_cpus_1.commit.op_class_0::SimdFloatSqrt            0      0.00%     67.87% # Class of committed instruction
system.switch_cpus_1.commit.op_class_0::MemRead     64254151     32.13%     99.99% # Class of committed instruction
system.switch_cpus_1.commit.op_class_0::MemWrite        12327      0.01%    100.00% # Class of committed instruction
system.switch_cpus_1.commit.op_class_0::FloatMemRead            0      0.00%    100.00% # Class of committed instruction
system.switch_cpus_1.commit.op_class_0::FloatMemWrite            0      0.00%    100.00% # Class of committed instruction
system.switch_cpus_1.commit.op_class_0::IprAccess            0      0.00%    100.00% # Class of committed instruction
system.switch_cpus_1.commit.op_class_0::InstPrefetch            0      0.00%    100.00% # Class of committed instruction
system.switch_cpus_1.commit.op_class_0::total    200001729                       # Class of committed instruction
system.switch_cpus_1.commit.bw_lim_events      6867185                       # number cycles where commit BW limit reached
system.switch_cpus_1.rob.rob_reads        11955955768                       # The number of ROB reads
system.switch_cpus_1.rob.rob_writes        6396885254                       # The number of ROB writes
system.switch_cpus_1.timesIdled                    12                       # Number of times that the entire CPU went into an idle state and unscheduled itself
system.switch_cpus_1.idleCycles                  1171                       # Total number of cycles that the CPU has spent unscheduled due to idling
system.switch_cpus_1.committedInsts         200000007                       # Number of Instructions Simulated
system.switch_cpus_1.committedOps           200000007                       # Number of Ops (including micro ops) Simulated
system.switch_cpus_1.cpi                    48.431914                       # CPI: Cycles Per Instruction
system.switch_cpus_1.cpi_total              48.431914                       # CPI: Total CPI of All Threads
system.switch_cpus_1.ipc                     0.020648                       # IPC: Instructions Per Cycle
system.switch_cpus_1.ipc_total               0.020648                       # IPC: Total IPC of All Threads
system.switch_cpus_1.int_regfile_reads     2717218174                       # number of integer regfile reads
system.switch_cpus_1.int_regfile_writes     945105262                       # number of integer regfile writes
system.switch_cpus_1.fp_regfile_writes             32                       # number of floating regfile writes
system.tol3bus.snoop_filter.tot_requests    284833228                       # Total number of requests made to the snoop filter.
system.tol3bus.snoop_filter.hit_single_requests    142414662                       # Number of requests hitting in the snoop filter with a single holder of the requested data.
system.tol3bus.snoop_filter.hit_multi_requests            0                       # Number of requests hitting in the snoop filter with multiple (>1) holders of the requested data.
system.tol3bus.snoop_filter.tot_snoops         458606                       # Total number of snoops made to the snoop filter.
system.tol3bus.snoop_filter.hit_single_snoops       458606                       # Number of snoops hitting in the snoop filter with a single holder of the requested data.
system.tol3bus.snoop_filter.hit_multi_snoops            0                       # Number of snoops hitting in the snoop filter with multiple (>1) holders of the requested data.
system.tol3bus.pwrStateResidencyTicks::UNDEFINED 180573756756399                       # Cumulative time (in ticks) in various power states
system.tol3bus.trans_dist::ReadResp         142404707                       # Transaction distribution
system.tol3bus.trans_dist::WritebackDirty      3577628                       # Transaction distribution
system.tol3bus.trans_dist::CleanEvict       213318422                       # Transaction distribution
system.tol3bus.trans_dist::ReadExReq            13859                       # Transaction distribution
system.tol3bus.trans_dist::ReadExResp           13859                       # Transaction distribution
system.tol3bus.trans_dist::ReadSharedReq    142404707                       # Transaction distribution
system.tol3bus.pkt_count_system.cpu.l2.mem_side::system.l3.cpu_side    427251794                       # Packet count per connected master and slave (bytes)
system.tol3bus.pkt_size_system.cpu.l2.mem_side::system.l3.cpu_side   9336278400                       # Cumulative packet size per connected master and slave (bytes)
system.tol3bus.snoops                        74481388                       # Total snoops (count)
system.tol3bus.snoopTraffic                   7478016                       # Total snoop traffic (bytes)
system.tol3bus.snoop_fanout::samples        216899954                       # Request fanout histogram
system.tol3bus.snoop_fanout::mean            0.002114                       # Request fanout histogram
system.tol3bus.snoop_fanout::stdev           0.045934                       # Request fanout histogram
system.tol3bus.snoop_fanout::underflows             0      0.00%      0.00% # Request fanout histogram
system.tol3bus.snoop_fanout::0              216441348     99.79%     99.79% # Request fanout histogram
system.tol3bus.snoop_fanout::1                 458606      0.21%    100.00% # Request fanout histogram
system.tol3bus.snoop_fanout::overflows              0      0.00%    100.00% # Request fanout histogram
system.tol3bus.snoop_fanout::min_value              0                       # Request fanout histogram
system.tol3bus.snoop_fanout::max_value              1                       # Request fanout histogram
system.tol3bus.snoop_fanout::total          216899954                       # Request fanout histogram
system.tol3bus.reqLayer0.occupancy        96001905996                       # Layer occupancy (ticks)
system.tol3bus.reqLayer0.utilization              0.5                       # Layer utilization (%)
system.tol3bus.respLayer0.occupancy       94850764956                       # Layer occupancy (ticks)
system.tol3bus.respLayer0.utilization             0.5                       # Layer utilization (%)

---------- End Simulation Statistics   ----------
