
---------- Begin Simulation Statistics ----------
sim_seconds                                  1.446345                       # Number of seconds simulated
sim_ticks                                1446345295778                       # Number of ticks simulated
final_tick                               191497655210778                       # Number of ticks from beginning of simulation (restored from checkpoints and never reset)
sim_freq                                 1000000000000                       # Frequency of simulated ticks
host_inst_rate                                 407685                       # Simulator instruction rate (inst/s)
host_op_rate                                   407685                       # Simulator op (including micro ops) rate (op/s)
host_tick_rate                              491378010                       # Simulator tick rate (ticks/s)
host_mem_usage                                2538912                       # Number of bytes of host memory used
host_seconds                                  2943.45                       # Real time elapsed on the host
sim_insts                                  1200000007                       # Number of instructions simulated
sim_ops                                    1200000007                       # Number of ops (including micro ops) simulated
system.voltage_domain.voltage                       1                       # Voltage in Volts
system.clk_domain.clock                          1000                       # Clock period in ticks
system.mem_ctrls0.pwrStateResidencyTicks::UNDEFINED 191497655210778                       # Cumulative time (in ticks) in various power states
system.mem_ctrls0.bytes_read::cpu.inst            192                       # Number of bytes read from this memory
system.mem_ctrls0.bytes_read::cpu.data            192                       # Number of bytes read from this memory
system.mem_ctrls0.bytes_read::switch_cpus.inst        12992                       # Number of bytes read from this memory
system.mem_ctrls0.bytes_read::switch_cpus.data     21414912                       # Number of bytes read from this memory
system.mem_ctrls0.bytes_read::switch_cpus_1.inst          384                       # Number of bytes read from this memory
system.mem_ctrls0.bytes_read::switch_cpus_1.data      4789888                       # Number of bytes read from this memory
system.mem_ctrls0.bytes_read::total          26218560                       # Number of bytes read from this memory
system.mem_ctrls0.bytes_inst_read::cpu.inst          192                       # Number of instructions bytes read from this memory
system.mem_ctrls0.bytes_inst_read::switch_cpus.inst        12992                       # Number of instructions bytes read from this memory
system.mem_ctrls0.bytes_inst_read::switch_cpus_1.inst          384                       # Number of instructions bytes read from this memory
system.mem_ctrls0.bytes_inst_read::total        13568                       # Number of instructions bytes read from this memory
system.mem_ctrls0.bytes_written::writebacks     17828032                       # Number of bytes written to this memory
system.mem_ctrls0.bytes_written::total       17828032                       # Number of bytes written to this memory
system.mem_ctrls0.num_reads::cpu.inst               3                       # Number of read requests responded to by this memory
system.mem_ctrls0.num_reads::cpu.data               3                       # Number of read requests responded to by this memory
system.mem_ctrls0.num_reads::switch_cpus.inst          203                       # Number of read requests responded to by this memory
system.mem_ctrls0.num_reads::switch_cpus.data       334608                       # Number of read requests responded to by this memory
system.mem_ctrls0.num_reads::switch_cpus_1.inst            6                       # Number of read requests responded to by this memory
system.mem_ctrls0.num_reads::switch_cpus_1.data        74842                       # Number of read requests responded to by this memory
system.mem_ctrls0.num_reads::total             409665                       # Number of read requests responded to by this memory
system.mem_ctrls0.num_writes::writebacks       278563                       # Number of write requests responded to by this memory
system.mem_ctrls0.num_writes::total            278563                       # Number of write requests responded to by this memory
system.mem_ctrls0.bw_read::cpu.inst               133                       # Total read bandwidth from this memory (bytes/s)
system.mem_ctrls0.bw_read::cpu.data               133                       # Total read bandwidth from this memory (bytes/s)
system.mem_ctrls0.bw_read::switch_cpus.inst         8983                       # Total read bandwidth from this memory (bytes/s)
system.mem_ctrls0.bw_read::switch_cpus.data     14806224                       # Total read bandwidth from this memory (bytes/s)
system.mem_ctrls0.bw_read::switch_cpus_1.inst          265                       # Total read bandwidth from this memory (bytes/s)
system.mem_ctrls0.bw_read::switch_cpus_1.data      3311718                       # Total read bandwidth from this memory (bytes/s)
system.mem_ctrls0.bw_read::total             18127456                       # Total read bandwidth from this memory (bytes/s)
system.mem_ctrls0.bw_inst_read::cpu.inst          133                       # Instruction read bandwidth from this memory (bytes/s)
system.mem_ctrls0.bw_inst_read::switch_cpus.inst         8983                       # Instruction read bandwidth from this memory (bytes/s)
system.mem_ctrls0.bw_inst_read::switch_cpus_1.inst          265                       # Instruction read bandwidth from this memory (bytes/s)
system.mem_ctrls0.bw_inst_read::total            9381                       # Instruction read bandwidth from this memory (bytes/s)
system.mem_ctrls0.bw_write::writebacks       12326263                       # Write bandwidth from this memory (bytes/s)
system.mem_ctrls0.bw_write::total            12326263                       # Write bandwidth from this memory (bytes/s)
system.mem_ctrls0.bw_total::writebacks       12326263                       # Total bandwidth to/from this memory (bytes/s)
system.mem_ctrls0.bw_total::cpu.inst              133                       # Total bandwidth to/from this memory (bytes/s)
system.mem_ctrls0.bw_total::cpu.data              133                       # Total bandwidth to/from this memory (bytes/s)
system.mem_ctrls0.bw_total::switch_cpus.inst         8983                       # Total bandwidth to/from this memory (bytes/s)
system.mem_ctrls0.bw_total::switch_cpus.data     14806224                       # Total bandwidth to/from this memory (bytes/s)
system.mem_ctrls0.bw_total::switch_cpus_1.inst          265                       # Total bandwidth to/from this memory (bytes/s)
system.mem_ctrls0.bw_total::switch_cpus_1.data      3311718                       # Total bandwidth to/from this memory (bytes/s)
system.mem_ctrls0.bw_total::total            30453718                       # Total bandwidth to/from this memory (bytes/s)
system.mem_ctrls0.readReqs                     409665                       # Number of read requests accepted
system.mem_ctrls0.writeReqs                    278563                       # Number of write requests accepted
system.mem_ctrls0.readBursts                   409665                       # Number of DRAM read bursts, including those serviced by the write queue
system.mem_ctrls0.writeBursts                  278563                       # Number of DRAM write bursts, including those merged in the write queue
system.mem_ctrls0.bytesReadDRAM              26152320                       # Total number of bytes read from DRAM
system.mem_ctrls0.bytesReadWrQ                  66240                       # Total number of bytes read from write queue
system.mem_ctrls0.bytesWritten               17825984                       # Total number of bytes written to DRAM
system.mem_ctrls0.bytesReadSys               26218560                       # Total read bytes from the system interface side
system.mem_ctrls0.bytesWrittenSys            17828032                       # Total written bytes from the system interface side
system.mem_ctrls0.servicedByWrQ                  1035                       # Number of DRAM read bursts serviced by the write queue
system.mem_ctrls0.mergedWrBursts                    2                       # Number of DRAM write bursts merged with an existing one
system.mem_ctrls0.neitherReadNorWriteReqs            0                       # Number of requests that are neither read nor write
system.mem_ctrls0.perBankRdBursts::0            26651                       # Per bank write bursts
system.mem_ctrls0.perBankRdBursts::1            26296                       # Per bank write bursts
system.mem_ctrls0.perBankRdBursts::2            26886                       # Per bank write bursts
system.mem_ctrls0.perBankRdBursts::3            26116                       # Per bank write bursts
system.mem_ctrls0.perBankRdBursts::4            23800                       # Per bank write bursts
system.mem_ctrls0.perBankRdBursts::5            24942                       # Per bank write bursts
system.mem_ctrls0.perBankRdBursts::6            25172                       # Per bank write bursts
system.mem_ctrls0.perBankRdBursts::7            26086                       # Per bank write bursts
system.mem_ctrls0.perBankRdBursts::8            26451                       # Per bank write bursts
system.mem_ctrls0.perBankRdBursts::9            25105                       # Per bank write bursts
system.mem_ctrls0.perBankRdBursts::10           25619                       # Per bank write bursts
system.mem_ctrls0.perBankRdBursts::11           24928                       # Per bank write bursts
system.mem_ctrls0.perBankRdBursts::12           23724                       # Per bank write bursts
system.mem_ctrls0.perBankRdBursts::13           24853                       # Per bank write bursts
system.mem_ctrls0.perBankRdBursts::14           25161                       # Per bank write bursts
system.mem_ctrls0.perBankRdBursts::15           26840                       # Per bank write bursts
system.mem_ctrls0.perBankWrBursts::0            18225                       # Per bank write bursts
system.mem_ctrls0.perBankWrBursts::1            18064                       # Per bank write bursts
system.mem_ctrls0.perBankWrBursts::2            18173                       # Per bank write bursts
system.mem_ctrls0.perBankWrBursts::3            17571                       # Per bank write bursts
system.mem_ctrls0.perBankWrBursts::4            15712                       # Per bank write bursts
system.mem_ctrls0.perBankWrBursts::5            16942                       # Per bank write bursts
system.mem_ctrls0.perBankWrBursts::6            17277                       # Per bank write bursts
system.mem_ctrls0.perBankWrBursts::7            18037                       # Per bank write bursts
system.mem_ctrls0.perBankWrBursts::8            18049                       # Per bank write bursts
system.mem_ctrls0.perBankWrBursts::9            17200                       # Per bank write bursts
system.mem_ctrls0.perBankWrBursts::10           17321                       # Per bank write bursts
system.mem_ctrls0.perBankWrBursts::11           17092                       # Per bank write bursts
system.mem_ctrls0.perBankWrBursts::12           16309                       # Per bank write bursts
system.mem_ctrls0.perBankWrBursts::13           16806                       # Per bank write bursts
system.mem_ctrls0.perBankWrBursts::14           17257                       # Per bank write bursts
system.mem_ctrls0.perBankWrBursts::15           18496                       # Per bank write bursts
system.mem_ctrls0.numRdRetry                        0                       # Number of times read queue was full causing retry
system.mem_ctrls0.numWrRetry                        0                       # Number of times write queue was full causing retry
system.mem_ctrls0.totGap                 1446324644250                       # Total gap between requests
system.mem_ctrls0.readPktSize::0                    0                       # Read request sizes (log2)
system.mem_ctrls0.readPktSize::1                    0                       # Read request sizes (log2)
system.mem_ctrls0.readPktSize::2                    0                       # Read request sizes (log2)
system.mem_ctrls0.readPktSize::3                    0                       # Read request sizes (log2)
system.mem_ctrls0.readPktSize::4                    0                       # Read request sizes (log2)
system.mem_ctrls0.readPktSize::5                    0                       # Read request sizes (log2)
system.mem_ctrls0.readPktSize::6               409665                       # Read request sizes (log2)
system.mem_ctrls0.writePktSize::0                   0                       # Write request sizes (log2)
system.mem_ctrls0.writePktSize::1                   0                       # Write request sizes (log2)
system.mem_ctrls0.writePktSize::2                   0                       # Write request sizes (log2)
system.mem_ctrls0.writePktSize::3                   0                       # Write request sizes (log2)
system.mem_ctrls0.writePktSize::4                   0                       # Write request sizes (log2)
system.mem_ctrls0.writePktSize::5                   0                       # Write request sizes (log2)
system.mem_ctrls0.writePktSize::6              278563                       # Write request sizes (log2)
system.mem_ctrls0.rdQLenPdf::0                 402979                       # What read queue length does an incoming req see
system.mem_ctrls0.rdQLenPdf::1                   5543                       # What read queue length does an incoming req see
system.mem_ctrls0.rdQLenPdf::2                    103                       # What read queue length does an incoming req see
system.mem_ctrls0.rdQLenPdf::3                      4                       # What read queue length does an incoming req see
system.mem_ctrls0.rdQLenPdf::4                      1                       # What read queue length does an incoming req see
system.mem_ctrls0.rdQLenPdf::5                      0                       # What read queue length does an incoming req see
system.mem_ctrls0.rdQLenPdf::6                      0                       # What read queue length does an incoming req see
system.mem_ctrls0.rdQLenPdf::7                      0                       # What read queue length does an incoming req see
system.mem_ctrls0.rdQLenPdf::8                      0                       # What read queue length does an incoming req see
system.mem_ctrls0.rdQLenPdf::9                      0                       # What read queue length does an incoming req see
system.mem_ctrls0.rdQLenPdf::10                     0                       # What read queue length does an incoming req see
system.mem_ctrls0.rdQLenPdf::11                     0                       # What read queue length does an incoming req see
system.mem_ctrls0.rdQLenPdf::12                     0                       # What read queue length does an incoming req see
system.mem_ctrls0.rdQLenPdf::13                     0                       # What read queue length does an incoming req see
system.mem_ctrls0.rdQLenPdf::14                     0                       # What read queue length does an incoming req see
system.mem_ctrls0.rdQLenPdf::15                     0                       # What read queue length does an incoming req see
system.mem_ctrls0.rdQLenPdf::16                     0                       # What read queue length does an incoming req see
system.mem_ctrls0.rdQLenPdf::17                     0                       # What read queue length does an incoming req see
system.mem_ctrls0.rdQLenPdf::18                     0                       # What read queue length does an incoming req see
system.mem_ctrls0.rdQLenPdf::19                     0                       # What read queue length does an incoming req see
system.mem_ctrls0.rdQLenPdf::20                     0                       # What read queue length does an incoming req see
system.mem_ctrls0.rdQLenPdf::21                     0                       # What read queue length does an incoming req see
system.mem_ctrls0.rdQLenPdf::22                     0                       # What read queue length does an incoming req see
system.mem_ctrls0.rdQLenPdf::23                     0                       # What read queue length does an incoming req see
system.mem_ctrls0.rdQLenPdf::24                     0                       # What read queue length does an incoming req see
system.mem_ctrls0.rdQLenPdf::25                     0                       # What read queue length does an incoming req see
system.mem_ctrls0.rdQLenPdf::26                     0                       # What read queue length does an incoming req see
system.mem_ctrls0.rdQLenPdf::27                     0                       # What read queue length does an incoming req see
system.mem_ctrls0.rdQLenPdf::28                     0                       # What read queue length does an incoming req see
system.mem_ctrls0.rdQLenPdf::29                     0                       # What read queue length does an incoming req see
system.mem_ctrls0.rdQLenPdf::30                     0                       # What read queue length does an incoming req see
system.mem_ctrls0.rdQLenPdf::31                     0                       # What read queue length does an incoming req see
system.mem_ctrls0.wrQLenPdf::0                      2                       # What write queue length does an incoming req see
system.mem_ctrls0.wrQLenPdf::1                      2                       # What write queue length does an incoming req see
system.mem_ctrls0.wrQLenPdf::2                      2                       # What write queue length does an incoming req see
system.mem_ctrls0.wrQLenPdf::3                      2                       # What write queue length does an incoming req see
system.mem_ctrls0.wrQLenPdf::4                      2                       # What write queue length does an incoming req see
system.mem_ctrls0.wrQLenPdf::5                      2                       # What write queue length does an incoming req see
system.mem_ctrls0.wrQLenPdf::6                      2                       # What write queue length does an incoming req see
system.mem_ctrls0.wrQLenPdf::7                      2                       # What write queue length does an incoming req see
system.mem_ctrls0.wrQLenPdf::8                      2                       # What write queue length does an incoming req see
system.mem_ctrls0.wrQLenPdf::9                      2                       # What write queue length does an incoming req see
system.mem_ctrls0.wrQLenPdf::10                     2                       # What write queue length does an incoming req see
system.mem_ctrls0.wrQLenPdf::11                     2                       # What write queue length does an incoming req see
system.mem_ctrls0.wrQLenPdf::12                     2                       # What write queue length does an incoming req see
system.mem_ctrls0.wrQLenPdf::13                     2                       # What write queue length does an incoming req see
system.mem_ctrls0.wrQLenPdf::14                     2                       # What write queue length does an incoming req see
system.mem_ctrls0.wrQLenPdf::15                 13125                       # What write queue length does an incoming req see
system.mem_ctrls0.wrQLenPdf::16                 13386                       # What write queue length does an incoming req see
system.mem_ctrls0.wrQLenPdf::17                 15475                       # What write queue length does an incoming req see
system.mem_ctrls0.wrQLenPdf::18                 15718                       # What write queue length does an incoming req see
system.mem_ctrls0.wrQLenPdf::19                 15770                       # What write queue length does an incoming req see
system.mem_ctrls0.wrQLenPdf::20                 15765                       # What write queue length does an incoming req see
system.mem_ctrls0.wrQLenPdf::21                 15780                       # What write queue length does an incoming req see
system.mem_ctrls0.wrQLenPdf::22                 15833                       # What write queue length does an incoming req see
system.mem_ctrls0.wrQLenPdf::23                 15848                       # What write queue length does an incoming req see
system.mem_ctrls0.wrQLenPdf::24                 15818                       # What write queue length does an incoming req see
system.mem_ctrls0.wrQLenPdf::25                 15800                       # What write queue length does an incoming req see
system.mem_ctrls0.wrQLenPdf::26                 15773                       # What write queue length does an incoming req see
system.mem_ctrls0.wrQLenPdf::27                 15759                       # What write queue length does an incoming req see
system.mem_ctrls0.wrQLenPdf::28                 15736                       # What write queue length does an incoming req see
system.mem_ctrls0.wrQLenPdf::29                 15722                       # What write queue length does an incoming req see
system.mem_ctrls0.wrQLenPdf::30                 15744                       # What write queue length does an incoming req see
system.mem_ctrls0.wrQLenPdf::31                 15685                       # What write queue length does an incoming req see
system.mem_ctrls0.wrQLenPdf::32                 15679                       # What write queue length does an incoming req see
system.mem_ctrls0.wrQLenPdf::33                    94                       # What write queue length does an incoming req see
system.mem_ctrls0.wrQLenPdf::34                    17                       # What write queue length does an incoming req see
system.mem_ctrls0.wrQLenPdf::35                     3                       # What write queue length does an incoming req see
system.mem_ctrls0.wrQLenPdf::36                     1                       # What write queue length does an incoming req see
system.mem_ctrls0.wrQLenPdf::37                     0                       # What write queue length does an incoming req see
system.mem_ctrls0.wrQLenPdf::38                     0                       # What write queue length does an incoming req see
system.mem_ctrls0.wrQLenPdf::39                     0                       # What write queue length does an incoming req see
system.mem_ctrls0.wrQLenPdf::40                     0                       # What write queue length does an incoming req see
system.mem_ctrls0.wrQLenPdf::41                     0                       # What write queue length does an incoming req see
system.mem_ctrls0.wrQLenPdf::42                     0                       # What write queue length does an incoming req see
system.mem_ctrls0.wrQLenPdf::43                     0                       # What write queue length does an incoming req see
system.mem_ctrls0.wrQLenPdf::44                     0                       # What write queue length does an incoming req see
system.mem_ctrls0.wrQLenPdf::45                     0                       # What write queue length does an incoming req see
system.mem_ctrls0.wrQLenPdf::46                     0                       # What write queue length does an incoming req see
system.mem_ctrls0.wrQLenPdf::47                     0                       # What write queue length does an incoming req see
system.mem_ctrls0.wrQLenPdf::48                     0                       # What write queue length does an incoming req see
system.mem_ctrls0.wrQLenPdf::49                     0                       # What write queue length does an incoming req see
system.mem_ctrls0.wrQLenPdf::50                     0                       # What write queue length does an incoming req see
system.mem_ctrls0.wrQLenPdf::51                     0                       # What write queue length does an incoming req see
system.mem_ctrls0.wrQLenPdf::52                     0                       # What write queue length does an incoming req see
system.mem_ctrls0.wrQLenPdf::53                     0                       # What write queue length does an incoming req see
system.mem_ctrls0.wrQLenPdf::54                     0                       # What write queue length does an incoming req see
system.mem_ctrls0.wrQLenPdf::55                     0                       # What write queue length does an incoming req see
system.mem_ctrls0.wrQLenPdf::56                     0                       # What write queue length does an incoming req see
system.mem_ctrls0.wrQLenPdf::57                     0                       # What write queue length does an incoming req see
system.mem_ctrls0.wrQLenPdf::58                     0                       # What write queue length does an incoming req see
system.mem_ctrls0.wrQLenPdf::59                     0                       # What write queue length does an incoming req see
system.mem_ctrls0.wrQLenPdf::60                     0                       # What write queue length does an incoming req see
system.mem_ctrls0.wrQLenPdf::61                     0                       # What write queue length does an incoming req see
system.mem_ctrls0.wrQLenPdf::62                     0                       # What write queue length does an incoming req see
system.mem_ctrls0.wrQLenPdf::63                     0                       # What write queue length does an incoming req see
system.mem_ctrls0.bytesPerActivate::samples       457513                       # Bytes accessed per row activation
system.mem_ctrls0.bytesPerActivate::mean    96.124709                       # Bytes accessed per row activation
system.mem_ctrls0.bytesPerActivate::gmean    80.727492                       # Bytes accessed per row activation
system.mem_ctrls0.bytesPerActivate::stdev    94.888576                       # Bytes accessed per row activation
system.mem_ctrls0.bytesPerActivate::0-127       352040     76.95%     76.95% # Bytes accessed per row activation
system.mem_ctrls0.bytesPerActivate::128-255        82042     17.93%     94.88% # Bytes accessed per row activation
system.mem_ctrls0.bytesPerActivate::256-383        13607      2.97%     97.85% # Bytes accessed per row activation
system.mem_ctrls0.bytesPerActivate::384-511         4791      1.05%     98.90% # Bytes accessed per row activation
system.mem_ctrls0.bytesPerActivate::512-639         1400      0.31%     99.21% # Bytes accessed per row activation
system.mem_ctrls0.bytesPerActivate::640-767          877      0.19%     99.40% # Bytes accessed per row activation
system.mem_ctrls0.bytesPerActivate::768-895          659      0.14%     99.54% # Bytes accessed per row activation
system.mem_ctrls0.bytesPerActivate::896-1023          502      0.11%     99.65% # Bytes accessed per row activation
system.mem_ctrls0.bytesPerActivate::1024-1151         1595      0.35%    100.00% # Bytes accessed per row activation
system.mem_ctrls0.bytesPerActivate::total       457513                       # Bytes accessed per row activation
system.mem_ctrls0.rdPerTurnAround::samples        15668                       # Reads before turning the bus around for writes
system.mem_ctrls0.rdPerTurnAround::mean     26.076908                       # Reads before turning the bus around for writes
system.mem_ctrls0.rdPerTurnAround::stdev   229.766779                       # Reads before turning the bus around for writes
system.mem_ctrls0.rdPerTurnAround::0-1023        15667     99.99%     99.99% # Reads before turning the bus around for writes
system.mem_ctrls0.rdPerTurnAround::28672-29695            1      0.01%    100.00% # Reads before turning the bus around for writes
system.mem_ctrls0.rdPerTurnAround::total        15668                       # Reads before turning the bus around for writes
system.mem_ctrls0.wrPerTurnAround::samples        15668                       # Writes before turning the bus around for reads
system.mem_ctrls0.wrPerTurnAround::mean     17.777062                       # Writes before turning the bus around for reads
system.mem_ctrls0.wrPerTurnAround::gmean    17.757485                       # Writes before turning the bus around for reads
system.mem_ctrls0.wrPerTurnAround::stdev     0.819447                       # Writes before turning the bus around for reads
system.mem_ctrls0.wrPerTurnAround::16            2348     14.99%     14.99% # Writes before turning the bus around for reads
system.mem_ctrls0.wrPerTurnAround::17             158      1.01%     15.99% # Writes before turning the bus around for reads
system.mem_ctrls0.wrPerTurnAround::18           11972     76.41%     92.40% # Writes before turning the bus around for reads
system.mem_ctrls0.wrPerTurnAround::19            1038      6.62%     99.03% # Writes before turning the bus around for reads
system.mem_ctrls0.wrPerTurnAround::20             136      0.87%     99.90% # Writes before turning the bus around for reads
system.mem_ctrls0.wrPerTurnAround::21              14      0.09%     99.99% # Writes before turning the bus around for reads
system.mem_ctrls0.wrPerTurnAround::22               1      0.01%     99.99% # Writes before turning the bus around for reads
system.mem_ctrls0.wrPerTurnAround::23               1      0.01%    100.00% # Writes before turning the bus around for reads
system.mem_ctrls0.wrPerTurnAround::total        15668                       # Writes before turning the bus around for reads
system.mem_ctrls0.totQLat                 22214413324                       # Total ticks spent queuing
system.mem_ctrls0.totMemAccLat            29876225824                       # Total ticks spent from burst creation until serviced by the DRAM
system.mem_ctrls0.totBusLat                2043150000                       # Total ticks spent in databus transfers
system.mem_ctrls0.avgQLat                    54363.15                       # Average queueing delay per DRAM burst
system.mem_ctrls0.avgBusLat                   5000.00                       # Average bus latency per DRAM burst
system.mem_ctrls0.avgMemAccLat               73113.15                       # Average memory access latency per DRAM burst
system.mem_ctrls0.avgRdBW                       18.08                       # Average DRAM read bandwidth in MiByte/s
system.mem_ctrls0.avgWrBW                       12.32                       # Average achieved write bandwidth in MiByte/s
system.mem_ctrls0.avgRdBWSys                    18.13                       # Average system read bandwidth in MiByte/s
system.mem_ctrls0.avgWrBWSys                    12.33                       # Average system write bandwidth in MiByte/s
system.mem_ctrls0.peakBW                     12800.00                       # Theoretical peak bandwidth in MiByte/s
system.mem_ctrls0.busUtil                        0.24                       # Data bus utilization in percentage
system.mem_ctrls0.busUtilRead                    0.14                       # Data bus utilization in percentage for reads
system.mem_ctrls0.busUtilWrite                   0.10                       # Data bus utilization in percentage for writes
system.mem_ctrls0.avgRdQLen                      1.00                       # Average read queue length when enqueuing
system.mem_ctrls0.avgWrQLen                     23.13                       # Average write queue length when enqueuing
system.mem_ctrls0.readRowHits                  177644                       # Number of row buffer hits during reads
system.mem_ctrls0.writeRowHits                  52004                       # Number of row buffer hits during writes
system.mem_ctrls0.readRowHitRate                43.47                       # Row buffer hit rate for reads
system.mem_ctrls0.writeRowHitRate               18.67                       # Row buffer hit rate for writes
system.mem_ctrls0.avgGap                   2101519.62                       # Average gap between requests
system.mem_ctrls0.pageHitRate                   33.42                       # Row buffer hit rate, read and write combined
system.mem_ctrls0_0.actEnergy              1641535980                       # Energy for activate commands per rank (pJ)
system.mem_ctrls0_0.preEnergy               872497065                       # Energy for precharge commands per rank (pJ)
system.mem_ctrls0_0.readEnergy             1470475860                       # Energy for read commands per rank (pJ)
system.mem_ctrls0_0.writeEnergy             730805220                       # Energy for write commands per rank (pJ)
system.mem_ctrls0_0.refreshEnergy        57287521200.000015                       # Energy for refresh commands per rank (pJ)
system.mem_ctrls0_0.actBackEnergy         30308488020                       # Energy for active background per rank (pJ)
system.mem_ctrls0_0.preBackEnergy          2737575360                       # Energy for precharge background per rank (pJ)
system.mem_ctrls0_0.actPowerDownEnergy   148834512030                       # Energy for active power-down per rank (pJ)
system.mem_ctrls0_0.prePowerDownEnergy    78662512320                       # Energy for precharge power-down per rank (pJ)
system.mem_ctrls0_0.selfRefreshEnergy    211175038845                       # Energy for self refresh per rank (pJ)
system.mem_ctrls0_0.totalEnergy          533742631320                       # Total energy per rank (pJ)
system.mem_ctrls0_0.averagePower           369.028492                       # Core power per rank (mW)
system.mem_ctrls0_0.totalIdleTime        1372621133110                       # Total Idle time Per DRAM Rank
system.mem_ctrls0_0.memoryStateTime::IDLE   4822674369                       # Time in different power states
system.mem_ctrls0_0.memoryStateTime::REF  24335366000                       # Time in different power states
system.mem_ctrls0_0.memoryStateTime::SREF 841460265028                       # Time in different power states
system.mem_ctrls0_0.memoryStateTime::PRE_PDN 204850287910                       # Time in different power states
system.mem_ctrls0_0.memoryStateTime::ACT  44484406721                       # Time in different power states
system.mem_ctrls0_0.memoryStateTime::ACT_PDN 326392295750                       # Time in different power states
system.mem_ctrls0_1.actEnergy              1625106840                       # Energy for activate commands per rank (pJ)
system.mem_ctrls0_1.preEnergy               863764770                       # Energy for precharge commands per rank (pJ)
system.mem_ctrls0_1.readEnergy             1447142340                       # Energy for read commands per rank (pJ)
system.mem_ctrls0_1.writeEnergy             723126600                       # Energy for write commands per rank (pJ)
system.mem_ctrls0_1.refreshEnergy        58006035360.000015                       # Energy for refresh commands per rank (pJ)
system.mem_ctrls0_1.actBackEnergy         30848693550                       # Energy for active background per rank (pJ)
system.mem_ctrls0_1.preBackEnergy          2751308160                       # Energy for precharge background per rank (pJ)
system.mem_ctrls0_1.actPowerDownEnergy   150765489630                       # Energy for active power-down per rank (pJ)
system.mem_ctrls0_1.prePowerDownEnergy    79849003680                       # Energy for precharge power-down per rank (pJ)
system.mem_ctrls0_1.selfRefreshEnergy    209167086075                       # Energy for self refresh per rank (pJ)
system.mem_ctrls0_1.totalEnergy          536067961695                       # Total energy per rank (pJ)
system.mem_ctrls0_1.averagePower           370.636225                       # Core power per rank (mW)
system.mem_ctrls0_1.totalIdleTime        1371472067542                       # Total Idle time Per DRAM Rank
system.mem_ctrls0_1.memoryStateTime::IDLE   4831111133                       # Time in different power states
system.mem_ctrls0_1.memoryStateTime::REF  24639774000                       # Time in different power states
system.mem_ctrls0_1.memoryStateTime::SREF 832916408028                       # Time in different power states
system.mem_ctrls0_1.memoryStateTime::PRE_PDN 207940930679                       # Time in different power states
system.mem_ctrls0_1.memoryStateTime::ACT  45391195220                       # Time in different power states
system.mem_ctrls0_1.memoryStateTime::ACT_PDN 330625876718                       # Time in different power states
system.mem_ctrls1.pwrStateResidencyTicks::UNDEFINED 191497655210778                       # Cumulative time (in ticks) in various power states
system.mem_ctrls1.bytes_read::cpu.inst            128                       # Number of bytes read from this memory
system.mem_ctrls1.bytes_read::cpu.data             64                       # Number of bytes read from this memory
system.mem_ctrls1.bytes_read::switch_cpus.inst        14144                       # Number of bytes read from this memory
system.mem_ctrls1.bytes_read::switch_cpus.data     21388480                       # Number of bytes read from this memory
system.mem_ctrls1.bytes_read::switch_cpus_1.inst          768                       # Number of bytes read from this memory
system.mem_ctrls1.bytes_read::switch_cpus_1.data      4774720                       # Number of bytes read from this memory
system.mem_ctrls1.bytes_read::total          26178304                       # Number of bytes read from this memory
system.mem_ctrls1.bytes_inst_read::cpu.inst          128                       # Number of instructions bytes read from this memory
system.mem_ctrls1.bytes_inst_read::switch_cpus.inst        14144                       # Number of instructions bytes read from this memory
system.mem_ctrls1.bytes_inst_read::switch_cpus_1.inst          768                       # Number of instructions bytes read from this memory
system.mem_ctrls1.bytes_inst_read::total        15040                       # Number of instructions bytes read from this memory
system.mem_ctrls1.bytes_written::writebacks     17807296                       # Number of bytes written to this memory
system.mem_ctrls1.bytes_written::total       17807296                       # Number of bytes written to this memory
system.mem_ctrls1.num_reads::cpu.inst               2                       # Number of read requests responded to by this memory
system.mem_ctrls1.num_reads::cpu.data               1                       # Number of read requests responded to by this memory
system.mem_ctrls1.num_reads::switch_cpus.inst          221                       # Number of read requests responded to by this memory
system.mem_ctrls1.num_reads::switch_cpus.data       334195                       # Number of read requests responded to by this memory
system.mem_ctrls1.num_reads::switch_cpus_1.inst           12                       # Number of read requests responded to by this memory
system.mem_ctrls1.num_reads::switch_cpus_1.data        74605                       # Number of read requests responded to by this memory
system.mem_ctrls1.num_reads::total             409036                       # Number of read requests responded to by this memory
system.mem_ctrls1.num_writes::writebacks       278239                       # Number of write requests responded to by this memory
system.mem_ctrls1.num_writes::total            278239                       # Number of write requests responded to by this memory
system.mem_ctrls1.bw_read::cpu.inst                88                       # Total read bandwidth from this memory (bytes/s)
system.mem_ctrls1.bw_read::cpu.data                44                       # Total read bandwidth from this memory (bytes/s)
system.mem_ctrls1.bw_read::switch_cpus.inst         9779                       # Total read bandwidth from this memory (bytes/s)
system.mem_ctrls1.bw_read::switch_cpus.data     14787949                       # Total read bandwidth from this memory (bytes/s)
system.mem_ctrls1.bw_read::switch_cpus_1.inst          531                       # Total read bandwidth from this memory (bytes/s)
system.mem_ctrls1.bw_read::switch_cpus_1.data      3301231                       # Total read bandwidth from this memory (bytes/s)
system.mem_ctrls1.bw_read::total             18099623                       # Total read bandwidth from this memory (bytes/s)
system.mem_ctrls1.bw_inst_read::cpu.inst           88                       # Instruction read bandwidth from this memory (bytes/s)
system.mem_ctrls1.bw_inst_read::switch_cpus.inst         9779                       # Instruction read bandwidth from this memory (bytes/s)
system.mem_ctrls1.bw_inst_read::switch_cpus_1.inst          531                       # Instruction read bandwidth from this memory (bytes/s)
system.mem_ctrls1.bw_inst_read::total           10399                       # Instruction read bandwidth from this memory (bytes/s)
system.mem_ctrls1.bw_write::writebacks       12311926                       # Write bandwidth from this memory (bytes/s)
system.mem_ctrls1.bw_write::total            12311926                       # Write bandwidth from this memory (bytes/s)
system.mem_ctrls1.bw_total::writebacks       12311926                       # Total bandwidth to/from this memory (bytes/s)
system.mem_ctrls1.bw_total::cpu.inst               88                       # Total bandwidth to/from this memory (bytes/s)
system.mem_ctrls1.bw_total::cpu.data               44                       # Total bandwidth to/from this memory (bytes/s)
system.mem_ctrls1.bw_total::switch_cpus.inst         9779                       # Total bandwidth to/from this memory (bytes/s)
system.mem_ctrls1.bw_total::switch_cpus.data     14787949                       # Total bandwidth to/from this memory (bytes/s)
system.mem_ctrls1.bw_total::switch_cpus_1.inst          531                       # Total bandwidth to/from this memory (bytes/s)
system.mem_ctrls1.bw_total::switch_cpus_1.data      3301231                       # Total bandwidth to/from this memory (bytes/s)
system.mem_ctrls1.bw_total::total            30411548                       # Total bandwidth to/from this memory (bytes/s)
system.mem_ctrls1.readReqs                     409036                       # Number of read requests accepted
system.mem_ctrls1.writeReqs                    278239                       # Number of write requests accepted
system.mem_ctrls1.readBursts                   409036                       # Number of DRAM read bursts, including those serviced by the write queue
system.mem_ctrls1.writeBursts                  278239                       # Number of DRAM write bursts, including those merged in the write queue
system.mem_ctrls1.bytesReadDRAM              26116160                       # Total number of bytes read from DRAM
system.mem_ctrls1.bytesReadWrQ                  62144                       # Total number of bytes read from write queue
system.mem_ctrls1.bytesWritten               17805824                       # Total number of bytes written to DRAM
system.mem_ctrls1.bytesReadSys               26178304                       # Total read bytes from the system interface side
system.mem_ctrls1.bytesWrittenSys            17807296                       # Total written bytes from the system interface side
system.mem_ctrls1.servicedByWrQ                   971                       # Number of DRAM read bursts serviced by the write queue
system.mem_ctrls1.mergedWrBursts                    0                       # Number of DRAM write bursts merged with an existing one
system.mem_ctrls1.neitherReadNorWriteReqs            0                       # Number of requests that are neither read nor write
system.mem_ctrls1.perBankRdBursts::0            26691                       # Per bank write bursts
system.mem_ctrls1.perBankRdBursts::1            26251                       # Per bank write bursts
system.mem_ctrls1.perBankRdBursts::2            26998                       # Per bank write bursts
system.mem_ctrls1.perBankRdBursts::3            26132                       # Per bank write bursts
system.mem_ctrls1.perBankRdBursts::4            23651                       # Per bank write bursts
system.mem_ctrls1.perBankRdBursts::5            25224                       # Per bank write bursts
system.mem_ctrls1.perBankRdBursts::6            25277                       # Per bank write bursts
system.mem_ctrls1.perBankRdBursts::7            26250                       # Per bank write bursts
system.mem_ctrls1.perBankRdBursts::8            26396                       # Per bank write bursts
system.mem_ctrls1.perBankRdBursts::9            24932                       # Per bank write bursts
system.mem_ctrls1.perBankRdBursts::10           25470                       # Per bank write bursts
system.mem_ctrls1.perBankRdBursts::11           24919                       # Per bank write bursts
system.mem_ctrls1.perBankRdBursts::12           23450                       # Per bank write bursts
system.mem_ctrls1.perBankRdBursts::13           24610                       # Per bank write bursts
system.mem_ctrls1.perBankRdBursts::14           25064                       # Per bank write bursts
system.mem_ctrls1.perBankRdBursts::15           26750                       # Per bank write bursts
system.mem_ctrls1.perBankWrBursts::0            18283                       # Per bank write bursts
system.mem_ctrls1.perBankWrBursts::1            18058                       # Per bank write bursts
system.mem_ctrls1.perBankWrBursts::2            18363                       # Per bank write bursts
system.mem_ctrls1.perBankWrBursts::3            17454                       # Per bank write bursts
system.mem_ctrls1.perBankWrBursts::4            15643                       # Per bank write bursts
system.mem_ctrls1.perBankWrBursts::5            17108                       # Per bank write bursts
system.mem_ctrls1.perBankWrBursts::6            17388                       # Per bank write bursts
system.mem_ctrls1.perBankWrBursts::7            18045                       # Per bank write bursts
system.mem_ctrls1.perBankWrBursts::8            18023                       # Per bank write bursts
system.mem_ctrls1.perBankWrBursts::9            17094                       # Per bank write bursts
system.mem_ctrls1.perBankWrBursts::10           17225                       # Per bank write bursts
system.mem_ctrls1.perBankWrBursts::11           17081                       # Per bank write bursts
system.mem_ctrls1.perBankWrBursts::12           16143                       # Per bank write bursts
system.mem_ctrls1.perBankWrBursts::13           16684                       # Per bank write bursts
system.mem_ctrls1.perBankWrBursts::14           17161                       # Per bank write bursts
system.mem_ctrls1.perBankWrBursts::15           18463                       # Per bank write bursts
system.mem_ctrls1.numRdRetry                        0                       # Number of times read queue was full causing retry
system.mem_ctrls1.numWrRetry                        0                       # Number of times write queue was full causing retry
system.mem_ctrls1.totGap                 1446324207687                       # Total gap between requests
system.mem_ctrls1.readPktSize::0                    0                       # Read request sizes (log2)
system.mem_ctrls1.readPktSize::1                    0                       # Read request sizes (log2)
system.mem_ctrls1.readPktSize::2                    0                       # Read request sizes (log2)
system.mem_ctrls1.readPktSize::3                    0                       # Read request sizes (log2)
system.mem_ctrls1.readPktSize::4                    0                       # Read request sizes (log2)
system.mem_ctrls1.readPktSize::5                    0                       # Read request sizes (log2)
system.mem_ctrls1.readPktSize::6               409036                       # Read request sizes (log2)
system.mem_ctrls1.writePktSize::0                   0                       # Write request sizes (log2)
system.mem_ctrls1.writePktSize::1                   0                       # Write request sizes (log2)
system.mem_ctrls1.writePktSize::2                   0                       # Write request sizes (log2)
system.mem_ctrls1.writePktSize::3                   0                       # Write request sizes (log2)
system.mem_ctrls1.writePktSize::4                   0                       # Write request sizes (log2)
system.mem_ctrls1.writePktSize::5                   0                       # Write request sizes (log2)
system.mem_ctrls1.writePktSize::6              278239                       # Write request sizes (log2)
system.mem_ctrls1.rdQLenPdf::0                 402289                       # What read queue length does an incoming req see
system.mem_ctrls1.rdQLenPdf::1                   5651                       # What read queue length does an incoming req see
system.mem_ctrls1.rdQLenPdf::2                    112                       # What read queue length does an incoming req see
system.mem_ctrls1.rdQLenPdf::3                     13                       # What read queue length does an incoming req see
system.mem_ctrls1.rdQLenPdf::4                      0                       # What read queue length does an incoming req see
system.mem_ctrls1.rdQLenPdf::5                      0                       # What read queue length does an incoming req see
system.mem_ctrls1.rdQLenPdf::6                      0                       # What read queue length does an incoming req see
system.mem_ctrls1.rdQLenPdf::7                      0                       # What read queue length does an incoming req see
system.mem_ctrls1.rdQLenPdf::8                      0                       # What read queue length does an incoming req see
system.mem_ctrls1.rdQLenPdf::9                      0                       # What read queue length does an incoming req see
system.mem_ctrls1.rdQLenPdf::10                     0                       # What read queue length does an incoming req see
system.mem_ctrls1.rdQLenPdf::11                     0                       # What read queue length does an incoming req see
system.mem_ctrls1.rdQLenPdf::12                     0                       # What read queue length does an incoming req see
system.mem_ctrls1.rdQLenPdf::13                     0                       # What read queue length does an incoming req see
system.mem_ctrls1.rdQLenPdf::14                     0                       # What read queue length does an incoming req see
system.mem_ctrls1.rdQLenPdf::15                     0                       # What read queue length does an incoming req see
system.mem_ctrls1.rdQLenPdf::16                     0                       # What read queue length does an incoming req see
system.mem_ctrls1.rdQLenPdf::17                     0                       # What read queue length does an incoming req see
system.mem_ctrls1.rdQLenPdf::18                     0                       # What read queue length does an incoming req see
system.mem_ctrls1.rdQLenPdf::19                     0                       # What read queue length does an incoming req see
system.mem_ctrls1.rdQLenPdf::20                     0                       # What read queue length does an incoming req see
system.mem_ctrls1.rdQLenPdf::21                     0                       # What read queue length does an incoming req see
system.mem_ctrls1.rdQLenPdf::22                     0                       # What read queue length does an incoming req see
system.mem_ctrls1.rdQLenPdf::23                     0                       # What read queue length does an incoming req see
system.mem_ctrls1.rdQLenPdf::24                     0                       # What read queue length does an incoming req see
system.mem_ctrls1.rdQLenPdf::25                     0                       # What read queue length does an incoming req see
system.mem_ctrls1.rdQLenPdf::26                     0                       # What read queue length does an incoming req see
system.mem_ctrls1.rdQLenPdf::27                     0                       # What read queue length does an incoming req see
system.mem_ctrls1.rdQLenPdf::28                     0                       # What read queue length does an incoming req see
system.mem_ctrls1.rdQLenPdf::29                     0                       # What read queue length does an incoming req see
system.mem_ctrls1.rdQLenPdf::30                     0                       # What read queue length does an incoming req see
system.mem_ctrls1.rdQLenPdf::31                     0                       # What read queue length does an incoming req see
system.mem_ctrls1.wrQLenPdf::0                      2                       # What write queue length does an incoming req see
system.mem_ctrls1.wrQLenPdf::1                      2                       # What write queue length does an incoming req see
system.mem_ctrls1.wrQLenPdf::2                      2                       # What write queue length does an incoming req see
system.mem_ctrls1.wrQLenPdf::3                      2                       # What write queue length does an incoming req see
system.mem_ctrls1.wrQLenPdf::4                      2                       # What write queue length does an incoming req see
system.mem_ctrls1.wrQLenPdf::5                      2                       # What write queue length does an incoming req see
system.mem_ctrls1.wrQLenPdf::6                      2                       # What write queue length does an incoming req see
system.mem_ctrls1.wrQLenPdf::7                      2                       # What write queue length does an incoming req see
system.mem_ctrls1.wrQLenPdf::8                      2                       # What write queue length does an incoming req see
system.mem_ctrls1.wrQLenPdf::9                      2                       # What write queue length does an incoming req see
system.mem_ctrls1.wrQLenPdf::10                     2                       # What write queue length does an incoming req see
system.mem_ctrls1.wrQLenPdf::11                     2                       # What write queue length does an incoming req see
system.mem_ctrls1.wrQLenPdf::12                     2                       # What write queue length does an incoming req see
system.mem_ctrls1.wrQLenPdf::13                     2                       # What write queue length does an incoming req see
system.mem_ctrls1.wrQLenPdf::14                     2                       # What write queue length does an incoming req see
system.mem_ctrls1.wrQLenPdf::15                 13088                       # What write queue length does an incoming req see
system.mem_ctrls1.wrQLenPdf::16                 13312                       # What write queue length does an incoming req see
system.mem_ctrls1.wrQLenPdf::17                 15430                       # What write queue length does an incoming req see
system.mem_ctrls1.wrQLenPdf::18                 15720                       # What write queue length does an incoming req see
system.mem_ctrls1.wrQLenPdf::19                 15770                       # What write queue length does an incoming req see
system.mem_ctrls1.wrQLenPdf::20                 15768                       # What write queue length does an incoming req see
system.mem_ctrls1.wrQLenPdf::21                 15782                       # What write queue length does an incoming req see
system.mem_ctrls1.wrQLenPdf::22                 15815                       # What write queue length does an incoming req see
system.mem_ctrls1.wrQLenPdf::23                 15828                       # What write queue length does an incoming req see
system.mem_ctrls1.wrQLenPdf::24                 15785                       # What write queue length does an incoming req see
system.mem_ctrls1.wrQLenPdf::25                 15790                       # What write queue length does an incoming req see
system.mem_ctrls1.wrQLenPdf::26                 15774                       # What write queue length does an incoming req see
system.mem_ctrls1.wrQLenPdf::27                 15741                       # What write queue length does an incoming req see
system.mem_ctrls1.wrQLenPdf::28                 15728                       # What write queue length does an incoming req see
system.mem_ctrls1.wrQLenPdf::29                 15716                       # What write queue length does an incoming req see
system.mem_ctrls1.wrQLenPdf::30                 15736                       # What write queue length does an incoming req see
system.mem_ctrls1.wrQLenPdf::31                 15667                       # What write queue length does an incoming req see
system.mem_ctrls1.wrQLenPdf::32                 15669                       # What write queue length does an incoming req see
system.mem_ctrls1.wrQLenPdf::33                    84                       # What write queue length does an incoming req see
system.mem_ctrls1.wrQLenPdf::34                     6                       # What write queue length does an incoming req see
system.mem_ctrls1.wrQLenPdf::35                     0                       # What write queue length does an incoming req see
system.mem_ctrls1.wrQLenPdf::36                     0                       # What write queue length does an incoming req see
system.mem_ctrls1.wrQLenPdf::37                     0                       # What write queue length does an incoming req see
system.mem_ctrls1.wrQLenPdf::38                     0                       # What write queue length does an incoming req see
system.mem_ctrls1.wrQLenPdf::39                     0                       # What write queue length does an incoming req see
system.mem_ctrls1.wrQLenPdf::40                     0                       # What write queue length does an incoming req see
system.mem_ctrls1.wrQLenPdf::41                     0                       # What write queue length does an incoming req see
system.mem_ctrls1.wrQLenPdf::42                     0                       # What write queue length does an incoming req see
system.mem_ctrls1.wrQLenPdf::43                     0                       # What write queue length does an incoming req see
system.mem_ctrls1.wrQLenPdf::44                     0                       # What write queue length does an incoming req see
system.mem_ctrls1.wrQLenPdf::45                     0                       # What write queue length does an incoming req see
system.mem_ctrls1.wrQLenPdf::46                     0                       # What write queue length does an incoming req see
system.mem_ctrls1.wrQLenPdf::47                     0                       # What write queue length does an incoming req see
system.mem_ctrls1.wrQLenPdf::48                     0                       # What write queue length does an incoming req see
system.mem_ctrls1.wrQLenPdf::49                     0                       # What write queue length does an incoming req see
system.mem_ctrls1.wrQLenPdf::50                     0                       # What write queue length does an incoming req see
system.mem_ctrls1.wrQLenPdf::51                     0                       # What write queue length does an incoming req see
system.mem_ctrls1.wrQLenPdf::52                     0                       # What write queue length does an incoming req see
system.mem_ctrls1.wrQLenPdf::53                     0                       # What write queue length does an incoming req see
system.mem_ctrls1.wrQLenPdf::54                     0                       # What write queue length does an incoming req see
system.mem_ctrls1.wrQLenPdf::55                     0                       # What write queue length does an incoming req see
system.mem_ctrls1.wrQLenPdf::56                     0                       # What write queue length does an incoming req see
system.mem_ctrls1.wrQLenPdf::57                     0                       # What write queue length does an incoming req see
system.mem_ctrls1.wrQLenPdf::58                     0                       # What write queue length does an incoming req see
system.mem_ctrls1.wrQLenPdf::59                     0                       # What write queue length does an incoming req see
system.mem_ctrls1.wrQLenPdf::60                     0                       # What write queue length does an incoming req see
system.mem_ctrls1.wrQLenPdf::61                     0                       # What write queue length does an incoming req see
system.mem_ctrls1.wrQLenPdf::62                     0                       # What write queue length does an incoming req see
system.mem_ctrls1.wrQLenPdf::63                     0                       # What write queue length does an incoming req see
system.mem_ctrls1.bytesPerActivate::samples       456742                       # Bytes accessed per row activation
system.mem_ctrls1.bytesPerActivate::mean    96.163664                       # Bytes accessed per row activation
system.mem_ctrls1.bytesPerActivate::gmean    80.743262                       # Bytes accessed per row activation
system.mem_ctrls1.bytesPerActivate::stdev    94.911200                       # Bytes accessed per row activation
system.mem_ctrls1.bytesPerActivate::0-127       351428     76.94%     76.94% # Bytes accessed per row activation
system.mem_ctrls1.bytesPerActivate::128-255        81866     17.92%     94.87% # Bytes accessed per row activation
system.mem_ctrls1.bytesPerActivate::256-383        13677      2.99%     97.86% # Bytes accessed per row activation
system.mem_ctrls1.bytesPerActivate::384-511         4681      1.02%     98.89% # Bytes accessed per row activation
system.mem_ctrls1.bytesPerActivate::512-639         1468      0.32%     99.21% # Bytes accessed per row activation
system.mem_ctrls1.bytesPerActivate::640-767          900      0.20%     99.40% # Bytes accessed per row activation
system.mem_ctrls1.bytesPerActivate::768-895          634      0.14%     99.54% # Bytes accessed per row activation
system.mem_ctrls1.bytesPerActivate::896-1023          515      0.11%     99.66% # Bytes accessed per row activation
system.mem_ctrls1.bytesPerActivate::1024-1151         1573      0.34%    100.00% # Bytes accessed per row activation
system.mem_ctrls1.bytesPerActivate::total       456742                       # Bytes accessed per row activation
system.mem_ctrls1.rdPerTurnAround::samples        15659                       # Reads before turning the bus around for writes
system.mem_ctrls1.rdPerTurnAround::mean     26.056389                       # Reads before turning the bus around for writes
system.mem_ctrls1.rdPerTurnAround::stdev   231.640201                       # Reads before turning the bus around for writes
system.mem_ctrls1.rdPerTurnAround::0-1023        15658     99.99%     99.99% # Reads before turning the bus around for writes
system.mem_ctrls1.rdPerTurnAround::28672-29695            1      0.01%    100.00% # Reads before turning the bus around for writes
system.mem_ctrls1.rdPerTurnAround::total        15659                       # Reads before turning the bus around for writes
system.mem_ctrls1.wrPerTurnAround::samples        15659                       # Writes before turning the bus around for reads
system.mem_ctrls1.wrPerTurnAround::mean     17.767163                       # Writes before turning the bus around for reads
system.mem_ctrls1.wrPerTurnAround::gmean    17.747360                       # Writes before turning the bus around for reads
system.mem_ctrls1.wrPerTurnAround::stdev     0.825304                       # Writes before turning the bus around for reads
system.mem_ctrls1.wrPerTurnAround::16            2405     15.36%     15.36% # Writes before turning the bus around for reads
system.mem_ctrls1.wrPerTurnAround::17             136      0.87%     16.23% # Writes before turning the bus around for reads
system.mem_ctrls1.wrPerTurnAround::18           11976     76.48%     92.71% # Writes before turning the bus around for reads
system.mem_ctrls1.wrPerTurnAround::19            1008      6.44%     99.14% # Writes before turning the bus around for reads
system.mem_ctrls1.wrPerTurnAround::20             121      0.77%     99.92% # Writes before turning the bus around for reads
system.mem_ctrls1.wrPerTurnAround::21              10      0.06%     99.98% # Writes before turning the bus around for reads
system.mem_ctrls1.wrPerTurnAround::22               2      0.01%     99.99% # Writes before turning the bus around for reads
system.mem_ctrls1.wrPerTurnAround::30               1      0.01%    100.00% # Writes before turning the bus around for reads
system.mem_ctrls1.wrPerTurnAround::total        15659                       # Writes before turning the bus around for reads
system.mem_ctrls1.totQLat                 22106418426                       # Total ticks spent queuing
system.mem_ctrls1.totMemAccLat            29757637176                       # Total ticks spent from burst creation until serviced by the DRAM
system.mem_ctrls1.totBusLat                2040325000                       # Total ticks spent in databus transfers
system.mem_ctrls1.avgQLat                    54173.77                       # Average queueing delay per DRAM burst
system.mem_ctrls1.avgBusLat                   5000.00                       # Average bus latency per DRAM burst
system.mem_ctrls1.avgMemAccLat               72923.77                       # Average memory access latency per DRAM burst
system.mem_ctrls1.avgRdBW                       18.06                       # Average DRAM read bandwidth in MiByte/s
system.mem_ctrls1.avgWrBW                       12.31                       # Average achieved write bandwidth in MiByte/s
system.mem_ctrls1.avgRdBWSys                    18.10                       # Average system read bandwidth in MiByte/s
system.mem_ctrls1.avgWrBWSys                    12.31                       # Average system write bandwidth in MiByte/s
system.mem_ctrls1.peakBW                     12800.00                       # Theoretical peak bandwidth in MiByte/s
system.mem_ctrls1.busUtil                        0.24                       # Data bus utilization in percentage
system.mem_ctrls1.busUtilRead                    0.14                       # Data bus utilization in percentage for reads
system.mem_ctrls1.busUtilWrite                   0.10                       # Data bus utilization in percentage for writes
system.mem_ctrls1.avgRdQLen                      1.00                       # Average read queue length when enqueuing
system.mem_ctrls1.avgWrQLen                     23.15                       # Average write queue length when enqueuing
system.mem_ctrls1.readRowHits                  177433                       # Number of row buffer hits during reads
system.mem_ctrls1.writeRowHits                  52106                       # Number of row buffer hits during writes
system.mem_ctrls1.readRowHitRate                43.48                       # Row buffer hit rate for reads
system.mem_ctrls1.writeRowHitRate               18.73                       # Row buffer hit rate for writes
system.mem_ctrls1.avgGap                   2104433.03                       # Average gap between requests
system.mem_ctrls1.pageHitRate                   33.45                       # Row buffer hit rate, read and write combined
system.mem_ctrls1_0.actEnergy              1645741440                       # Energy for activate commands per rank (pJ)
system.mem_ctrls1_0.preEnergy               874732320                       # Energy for precharge commands per rank (pJ)
system.mem_ctrls1_0.readEnergy             1474224360                       # Energy for read commands per rank (pJ)
system.mem_ctrls1_0.writeEnergy             732585240                       # Energy for write commands per rank (pJ)
system.mem_ctrls1_0.refreshEnergy        57305960400.000015                       # Energy for refresh commands per rank (pJ)
system.mem_ctrls1_0.actBackEnergy         30462138360                       # Energy for active background per rank (pJ)
system.mem_ctrls1_0.preBackEnergy          2734849440                       # Energy for precharge background per rank (pJ)
system.mem_ctrls1_0.actPowerDownEnergy   149342335860                       # Energy for active power-down per rank (pJ)
system.mem_ctrls1_0.prePowerDownEnergy    78363045120                       # Energy for precharge power-down per rank (pJ)
system.mem_ctrls1_0.selfRefreshEnergy    210982832580                       # Energy for self refresh per rank (pJ)
system.mem_ctrls1_0.totalEnergy          533942375550                       # Total energy per rank (pJ)
system.mem_ctrls1_0.averagePower           369.166597                       # Core power per rank (mW)
system.mem_ctrls1_0.totalIdleTime        1372276960612                       # Total Idle time Per DRAM Rank
system.mem_ctrls1_0.memoryStateTime::IDLE   4815154874                       # Time in different power states
system.mem_ctrls1_0.memoryStateTime::REF  24343034000                       # Time in different power states
system.mem_ctrls1_0.memoryStateTime::SREF 840791662528                       # Time in different power states
system.mem_ctrls1_0.memoryStateTime::PRE_PDN 204070270703                       # Time in different power states
system.mem_ctrls1_0.memoryStateTime::ACT  44818969518                       # Time in different power states
system.mem_ctrls1_0.memoryStateTime::ACT_PDN 327506204155                       # Time in different power states
system.mem_ctrls1_1.actEnergy              1615396440                       # Energy for activate commands per rank (pJ)
system.mem_ctrls1_1.preEnergy               858603570                       # Energy for precharge commands per rank (pJ)
system.mem_ctrls1_1.readEnergy             1439359740                       # Energy for read commands per rank (pJ)
system.mem_ctrls1_1.writeEnergy             719702280                       # Energy for write commands per rank (pJ)
system.mem_ctrls1_1.refreshEnergy        57914454000.000015                       # Energy for refresh commands per rank (pJ)
system.mem_ctrls1_1.actBackEnergy         30681306780                       # Energy for active background per rank (pJ)
system.mem_ctrls1_1.preBackEnergy          2746035840                       # Energy for precharge background per rank (pJ)
system.mem_ctrls1_1.actPowerDownEnergy   150548087070                       # Energy for active power-down per rank (pJ)
system.mem_ctrls1_1.prePowerDownEnergy    79880051520                       # Energy for precharge power-down per rank (pJ)
system.mem_ctrls1_1.selfRefreshEnergy    209323761075                       # Energy for self refresh per rank (pJ)
system.mem_ctrls1_1.totalEnergy          535748337225                       # Total energy per rank (pJ)
system.mem_ctrls1_1.averagePower           370.415237                       # Core power per rank (mW)
system.mem_ctrls1_1.totalIdleTime        1371856769526                       # Total Idle time Per DRAM Rank
system.mem_ctrls1_1.memoryStateTime::IDLE   4821895063                       # Time in different power states
system.mem_ctrls1_1.memoryStateTime::REF  24600950000                       # Time in different power states
system.mem_ctrls1_1.memoryStateTime::SREF 833692296028                       # Time in different power states
system.mem_ctrls1_1.memoryStateTime::PRE_PDN 208020296119                       # Time in different power states
system.mem_ctrls1_1.memoryStateTime::ACT  45060716783                       # Time in different power states
system.mem_ctrls1_1.memoryStateTime::ACT_PDN 330149141785                       # Time in different power states
system.pwrStateResidencyTicks::UNDEFINED 191497655210778                       # Cumulative time (in ticks) in various power states
system.cpu.branchPred.lookups                       4                       # Number of BP lookups
system.cpu.branchPred.condPredicted                 2                       # Number of conditional branches predicted
system.cpu.branchPred.condIncorrect                 2                       # Number of conditional branches incorrect
system.cpu.branchPred.BTBLookups                    2                       # Number of BTB lookups
system.cpu.branchPred.BTBHits                       0                       # Number of BTB hits
system.cpu.branchPred.BTBCorrect                    0                       # Number of correct BTB predictions (this stat may not work properly.
system.cpu.branchPred.BTBHitPct              0.000000                       # BTB Hit Percentage
system.cpu.branchPred.usedRAS                       0                       # Number of times the RAS was used to get a target.
system.cpu.branchPred.RASInCorrect                  0                       # Number of incorrect RAS predictions.
system.cpu.branchPred.indirectLookups               0                       # Number of indirect predictor lookups.
system.cpu.branchPred.indirectHits                  0                       # Number of indirect target hits.
system.cpu.branchPred.indirectMisses                0                       # Number of indirect misses.
system.cpu.branchPredindirectMispredicted            0                       # Number of mispredicted indirect branches.
system.cpu_voltage_domain.voltage                   1                       # Voltage in Volts
system.cpu_clk_domain.clock                       333                       # Clock period in ticks
system.cpu.dtb.fetch_hits                           0                       # ITB hits
system.cpu.dtb.fetch_misses                         0                       # ITB misses
system.cpu.dtb.fetch_acv                            0                       # ITB acv
system.cpu.dtb.fetch_accesses                       0                       # ITB accesses
system.cpu.dtb.read_hits                            6                       # DTB read hits
system.cpu.dtb.read_misses                          0                       # DTB read misses
system.cpu.dtb.read_acv                             0                       # DTB read access violations
system.cpu.dtb.read_accesses                        6                       # DTB read accesses
system.cpu.dtb.write_hits                           1                       # DTB write hits
system.cpu.dtb.write_misses                         0                       # DTB write misses
system.cpu.dtb.write_acv                            0                       # DTB write access violations
system.cpu.dtb.write_accesses                       1                       # DTB write accesses
system.cpu.dtb.data_hits                            7                       # DTB hits
system.cpu.dtb.data_misses                          0                       # DTB misses
system.cpu.dtb.data_acv                             0                       # DTB access violations
system.cpu.dtb.data_accesses                        7                       # DTB accesses
system.cpu.itb.fetch_hits                           7                       # ITB hits
system.cpu.itb.fetch_misses                         0                       # ITB misses
system.cpu.itb.fetch_acv                            0                       # ITB acv
system.cpu.itb.fetch_accesses                       7                       # ITB accesses
system.cpu.itb.read_hits                            0                       # DTB read hits
system.cpu.itb.read_misses                          0                       # DTB read misses
system.cpu.itb.read_acv                             0                       # DTB read access violations
system.cpu.itb.read_accesses                        0                       # DTB read accesses
system.cpu.itb.write_hits                           0                       # DTB write hits
system.cpu.itb.write_misses                         0                       # DTB write misses
system.cpu.itb.write_acv                            0                       # DTB write access violations
system.cpu.itb.write_accesses                       0                       # DTB write accesses
system.cpu.itb.data_hits                            0                       # DTB hits
system.cpu.itb.data_misses                          0                       # DTB misses
system.cpu.itb.data_acv                             0                       # DTB access violations
system.cpu.itb.data_accesses                        0                       # DTB accesses
system.cpu.workload.num_syscalls                    0                       # Number of system calls
system.cpu.pwrStateResidencyTicks::ON    1446345295778                       # Cumulative time (in ticks) in various power states
system.cpu.numCycles                             1458                       # number of cpu cycles simulated
system.cpu.numWorkItemsStarted                      0                       # number of work items this cpu started
system.cpu.numWorkItemsCompleted                    0                       # number of work items this cpu completed
system.cpu.fetch.icacheStallCycles                 50                       # Number of cycles fetch is stalled on an Icache miss
system.cpu.fetch.Insts                             19                       # Number of instructions fetch has processed
system.cpu.fetch.Branches                           4                       # Number of branches that fetch encountered
system.cpu.fetch.Cycles                             4                       # Number of cycles fetch has run and was not squashing or blocked
system.cpu.fetch.SquashCycles                       7                       # Number of cycles fetch has spent squashing
system.cpu.fetch.PendingDrainCycles                 6                       # Number of cycles fetch has spent waiting on pipes to drain
system.cpu.fetch.CacheLines                         7                       # Number of cache lines fetched
system.cpu.fetch.IcacheSquashes                     4                       # Number of outstanding Icache misses that were squashed
system.cpu.fetch.rateDist::samples                 63                       # Number of instructions fetched each cycle (Total)
system.cpu.fetch.rateDist::mean              0.301587                       # Number of instructions fetched each cycle (Total)
system.cpu.fetch.rateDist::stdev             1.432738                       # Number of instructions fetched each cycle (Total)
system.cpu.fetch.rateDist::underflows               0      0.00%      0.00% # Number of instructions fetched each cycle (Total)
system.cpu.fetch.rateDist::0                       59     93.65%     93.65% # Number of instructions fetched each cycle (Total)
system.cpu.fetch.rateDist::1                        1      1.59%     95.24% # Number of instructions fetched each cycle (Total)
system.cpu.fetch.rateDist::2                        1      1.59%     96.83% # Number of instructions fetched each cycle (Total)
system.cpu.fetch.rateDist::3                        0      0.00%     96.83% # Number of instructions fetched each cycle (Total)
system.cpu.fetch.rateDist::4                        0      0.00%     96.83% # Number of instructions fetched each cycle (Total)
system.cpu.fetch.rateDist::5                        0      0.00%     96.83% # Number of instructions fetched each cycle (Total)
system.cpu.fetch.rateDist::6                        0      0.00%     96.83% # Number of instructions fetched each cycle (Total)
[...]
system.switch_cpus_1.iq.int_inst_queue_writes    562923281                       # Number of integer instruction queue writes
system.switch_cpus_1.iq.int_inst_queue_wakeup_accesses    317649724                       # Number of integer instruction queue wakeup accesses
system.switch_cpus_1.iq.fp_inst_queue_reads          222                       # Number of floating instruction queue reads
system.switch_cpus_1.iq.fp_inst_queue_writes          177                       # Number of floating instruction queue writes
system.switch_cpus_1.iq.fp_inst_queue_wakeup_accesses          101                       # Number of floating instruction queue wakeup accesses
system.switch_cpus_1.iq.int_alu_accesses    342878730                       # Number of integer alu accesses
system.switch_cpus_1.iq.fp_alu_accesses           111                       # Number of floating point alu accesses
system.switch_cpus_1.iew.lsq.thread0.forwLoads      3736301                       # Number of loads that had data forwarded from stores
system.switch_cpus_1.iew.lsq.thread0.invAddrLoads            0                       # Number of loads ignored due to an invalid address
system.switch_cpus_1.iew.lsq.thread0.squashedLoads     43310874                       # Number of loads squashed
system.switch_cpus_1.iew.lsq.thread0.ignoredResponses        25085                       # Number of memory responses ignored because the instruction is squashed
system.switch_cpus_1.iew.lsq.thread0.memOrderViolation        13901                       # Number of memory ordering violations
system.switch_cpus_1.iew.lsq.thread0.squashedStores     13474950                       # Number of stores squashed
system.switch_cpus_1.iew.lsq.thread0.invAddrSwpfs            0                       # Number of software prefetches ignored due to an invalid address
system.switch_cpus_1.iew.lsq.thread0.blockedLoads            0                       # Number of blocked loads due to partial load-store forwarding
system.switch_cpus_1.iew.lsq.thread0.rescheduledLoads            0                       # Number of loads that were rescheduled
system.switch_cpus_1.iew.lsq.thread0.cacheBlocked      6540973                       # Number of times an access to memory failed due to the cache being blocked
system.switch_cpus_1.iew.iewIdleCycles              0                       # Number of cycles IEW is idle
system.switch_cpus_1.iew.iewSquashCycles      3294943                       # Number of cycles IEW is squashing
system.switch_cpus_1.iew.iewBlockCycles      63545907                       # Number of cycles IEW is blocking
system.switch_cpus_1.iew.iewUnblockCycles     22887865                       # Number of cycles IEW is unblocking
system.switch_cpus_1.iew.iewDispatchedInsts    382150536                       # Number of instructions dispatched to IQ
system.switch_cpus_1.iew.iewDispSquashedInsts       967689                       # Number of squashed instructions skipped by dispatch
system.switch_cpus_1.iew.iewDispLoadInsts     92743622                       # Number of dispatched load instructions
system.switch_cpus_1.iew.iewDispStoreInsts     27540438                       # Number of dispatched store instructions
system.switch_cpus_1.iew.iewDispNonSpecInsts            0                       # Number of dispatched non-speculative instructions
system.switch_cpus_1.iew.iewIQFullEvents       236289                       # Number of times the IQ has become full, causing a stall
system.switch_cpus_1.iew.iewLSQFullEvents     22493764                       # Number of times the LSQ has become full, causing a stall
system.switch_cpus_1.iew.memOrderViolationEvents        13901                       # Number of memory order violations
system.switch_cpus_1.iew.predictedTakenIncorrect      1689956                       # Number of branches that were predicted taken incorrectly
system.switch_cpus_1.iew.predictedNotTakenIncorrect      1803667                       # Number of branches that were predicted not taken incorrectly
system.switch_cpus_1.iew.branchMispredicts      3493623                       # Number of branch mispredicts detected at execute
system.switch_cpus_1.iew.iewExecutedInsts    332070347                       # Number of executed instructions
system.switch_cpus_1.iew.iewExecLoadInsts     87443690                       # Number of load instructions executed
system.switch_cpus_1.iew.iewExecSquashedInsts      6245368                       # Number of squashed instructions skipped in execute
system.switch_cpus_1.iew.exec_swp                   0                       # number of swp insts executed
system.switch_cpus_1.iew.exec_nop              695245                       # number of nop insts executed
system.switch_cpus_1.iew.exec_refs          108431701                       # number of memory reference insts executed
system.switch_cpus_1.iew.exec_branches       38599975                       # Number of branches executed
system.switch_cpus_1.iew.exec_stores         20988011                       # Number of stores executed
system.switch_cpus_1.iew.exec_rate           1.189621                       # Inst execution rate
system.switch_cpus_1.iew.wb_sent            321217544                       # cumulative count of insts sent to commit
system.switch_cpus_1.iew.wb_count           317649825                       # cumulative count of insts written-back
system.switch_cpus_1.iew.wb_producers       206559489                       # num instructions producing a value
system.switch_cpus_1.iew.wb_consumers       271480397                       # num instructions consuming a value
system.switch_cpus_1.iew.wb_rate             1.137961                       # insts written-back per cycle
system.switch_cpus_1.iew.wb_fanout           0.760863                       # average fanout of values written-back
system.switch_cpus_1.commit.commitSquashedInsts    172463788                       # The number of squashed insts skipped by commit
system.switch_cpus_1.commit.branchMispredicts      2848980                       # The number of times a branch was mispredicted
system.switch_cpus_1.commit.committed_per_cycle::samples    255142815                       # Number of insts commited each cycle
system.switch_cpus_1.commit.committed_per_cycle::mean     0.785987                       # Number of insts commited each cycle
system.switch_cpus_1.commit.committed_per_cycle::stdev     2.007923                       # Number of insts commited each cycle
system.switch_cpus_1.commit.committed_per_cycle::underflows            0      0.00%      0.00% # Number of insts commited each cycle
system.switch_cpus_1.commit.committed_per_cycle::0    201297866     78.90%     78.90% # Number of insts commited each cycle
system.switch_cpus_1.commit.committed_per_cycle::1     17117918      6.71%     85.61% # Number of insts commited each cycle
system.switch_cpus_1.commit.committed_per_cycle::2     11039318      4.33%     89.93% # Number of insts commited each cycle
system.switch_cpus_1.commit.committed_per_cycle::3      4947195      1.94%     91.87% # Number of insts commited each cycle
system.switch_cpus_1.commit.committed_per_cycle::4      2524287      0.99%     92.86% # Number of insts commited each cycle
system.switch_cpus_1.commit.committed_per_cycle::5      1894320      0.74%     93.60% # Number of insts commited each cycle
system.switch_cpus_1.commit.committed_per_cycle::6      1397135      0.55%     94.15% # Number of insts commited each cycle
system.switch_cpus_1.commit.committed_per_cycle::7       848973      0.33%     94.48% # Number of insts commited each cycle
system.switch_cpus_1.commit.committed_per_cycle::8     14075803      5.52%    100.00% # Number of insts commited each cycle
system.switch_cpus_1.commit.committed_per_cycle::overflows            0      0.00%    100.00% # Number of insts commited each cycle
system.switch_cpus_1.commit.committed_per_cycle::min_value            0                       # Number of insts commited each cycle
system.switch_cpus_1.commit.committed_per_cycle::max_value            8                       # Number of insts commited each cycle
system.switch_cpus_1.commit.committed_per_cycle::total    255142815                       # Number of insts commited each cycle
system.switch_cpus_1.commit.committedInsts    200538932                       # Number of instructions committed
system.switch_cpus_1.commit.committedOps    200538932                       # Number of ops (including micro ops) committed
system.switch_cpus_1.commit.swp_count               0                       # Number of s/w prefetches committed
system.switch_cpus_1.commit.refs             63498195                       # Number of memory references committed
system.switch_cpus_1.commit.loads            49432720                       # Number of loads committed
system.switch_cpus_1.commit.membars                 0                       # Number of memory barriers committed
system.switch_cpus_1.commit.branches         24329166                       # Number of branches committed
system.switch_cpus_1.commit.fp_insts               91                       # Number of committed floating point instructions.
system.switch_cpus_1.commit.int_insts       197997126                       # Number of committed integer instructions.
system.switch_cpus_1.commit.function_calls       749984                       # Number of function calls committed.
system.switch_cpus_1.commit.op_class_0::No_OpClass       538941      0.27%      0.27% # Class of committed instruction
system.switch_cpus_1.commit.op_class_0::IntAlu    136501742     68.07%     68.34% # Class of committed instruction
system.switch_cpus_1.commit.op_class_0::IntMult            0      0.00%     68.34% # Class of committed instruction
system.switch_cpus_1.commit.op_class_0::IntDiv            0      0.00%     68.34% # Class of committed instruction
system.switch_cpus_1.commit.op_class_0::FloatAdd           30      0.00%     68.34% # Class of committed instruction
system.switch_cpus_1.commit.op_class_0::FloatCmp            0      0.00%     68.34% # Class of committed instruction
system.switch_cpus_1.commit.op_class_0::FloatCvt           18      0.00%     68.34% # Class of committed instruction
system.switch_cpus_1.commit.op_class_0::FloatMult            0      0.00%     68.34% # Class of committed instruction
system.switch_cpus_1.commit.op_class_0::FloatMultAcc            0      0.00%     68.34% # Class of committed instruction
system.switch_cpus_1.commit.op_class_0::FloatDiv            6      0.00%     68.34% # Class of committed instruction
system.switch_cpus_1.commit.op_class_0::FloatMisc            0      0.00%     68.34% # Class of committed instruction
system.switch_cpus_1.commit.op_class_0::FloatSqrt            0      0.00%     68.34% # Class of committed instruction
system.switch_cpus_1.commit.op_class_0::SimdAdd            0      0.00%     68.34% # Class of committed instruction
system.switch_cpus_1.commit.op_class_0::SimdAddAcc            0      0.00%     68.34% # Class of committed instruction
system.switch_cpus_1.commit.op_class_0::SimdAlu            0      0.00%     68.34% # Class of committed instruction
system.switch_cpus_1.commit.op_class_0::SimdCmp            0      0.00%     68.34% # Class of committed instruction
system.switch_cpus_1.commit.op_class_0::SimdCvt            0      0.00%     68.34% # Class of committed instruction
system.switch_cpus_1.commit.op_class_0::SimdMisc            0      0.00%     68.34% # Class of committed instruction
system.switch_cpus_1.commit.op_class_0::SimdMult            0      0.00%     68.34% # Class of committed instruction
system.switch_cpus_1.commit.op_class_0::SimdMultAcc            0      0.00%     68.34% # Class of committed instruction
system.switch_cpus_1.commit.op_class_0::SimdShift            0      0.00%     68.34% # Class of committed instruction
system.switch_cpus_1.commit.op_class_0::SimdShiftAcc            0      0.00%     68.34% # Class of committed instruction
system.switch_cpus_1.commit.op_class_0::SimdSqrt            0      0.00%     68.34% # Class of committed instruction
system.switch_cpus_1.commit.op_class_0::SimdFloatAdd            0      0.00%     68.34% # Class of committed instruction
system.switch_cpus_1.commit.op_class_0::SimdFloatAlu            0      0.00%     68.34% # Class of committed instruction
system.switch_cpus_1.commit.op_class_0::SimdFloatCmp            0      0.00%     68.34% # Class of committed instruction
system.switch_cpus_1.commit.op_class_0::SimdFloatCvt            0      0.00%     68.34% # Class of committed instruction
system.switch_cpus_1.commit.op_class_0::SimdFloatDiv            0      0.00%     68.34% # Class of committed instruction
system.switch_cpus_1.commit.op_class_0::SimdFloatMisc            0      0.00%     68.34% # Class of committed instruction
system.switch_cpus_1.commit.op_class_0::SimdFloatMult            0      0.00%     68.34% # Class of committed instruction
system.switch_cpus_1.commit.op_class_0::SimdFloatMultAcc            0      0.00%     68.34% # Class of committed instruction
system.switch_cpus_1.commit.op_class_0::SimdFloatSqrt            0      0.00%     68.34% # Class of committed instruction
system.switch_cpus_1.commit.op_class_0::MemRead     49432701     24.65%     92.99% # Class of committed instruction
system.switch_cpus_1.commit.op_class_0::MemWrite     14065457      7.01%    100.00% # Class of committed instruction
system.switch_cpus_1.commit.op_class_0::FloatMemRead           19      0.00%    100.00% # Class of committed instruction
system.switch_cpus_1.commit.op_class_0::FloatMemWrite           18      0.00%    100.00% # Class of committed instruction
system.switch_cpus_1.commit.op_class_0::IprAccess            0      0.00%    100.00% # Class of committed instruction
system.switch_cpus_1.commit.op_class_0::InstPrefetch            0      0.00%    100.00% # Class of committed instruction
system.switch_cpus_1.commit.op_class_0::total    200538932                       # Class of committed instruction
system.switch_cpus_1.commit.bw_lim_events     14075803                       # number cycles where commit BW limit reached
system.switch_cpus_1.rob.rob_reads          608414108                       # The number of ROB reads
system.switch_cpus_1.rob.rob_writes         769997162                       # The number of ROB writes
system.switch_cpus_1.timesIdled                   355                       # Number of times that the entire CPU went into an idle state and unscheduled itself
system.switch_cpus_1.idleCycles                 34743                       # Total number of cycles that the CPU has spent unscheduled due to idling
system.switch_cpus_1.committedInsts         200000003                       # Number of Instructions Simulated
system.switch_cpus_1.committedOps           200000003                       # Number of Ops (including micro ops) Simulated
system.switch_cpus_1.cpi                     1.395698                       # CPI: Cycles Per Instruction
system.switch_cpus_1.cpi_total               1.395698                       # CPI: Total CPI of All Threads
system.switch_cpus_1.ipc                     0.716488                       # IPC: Instructions Per Cycle
system.switch_cpus_1.ipc_total               0.716488                       # IPC: Total IPC of All Threads
system.switch_cpus_1.int_regfile_reads      451864873                       # number of integer regfile reads
system.switch_cpus_1.int_regfile_writes     261586863                       # number of integer regfile writes
system.switch_cpus_1.fp_regfile_reads              63                       # number of floating regfile reads
system.switch_cpus_1.fp_regfile_writes            103                       # number of floating regfile writes
system.switch_cpus_1.misc_regfile_reads            12                       # number of misc regfile reads
system.switch_cpus_1.misc_regfile_writes            6                       # number of misc regfile writes
system.tol3bus.snoop_filter.tot_requests     15148879                       # Total number of requests made to the snoop filter.
system.tol3bus.snoop_filter.hit_single_requests      7572293                       # Number of requests hitting in the snoop filter with a single holder of the requested data.
system.tol3bus.snoop_filter.hit_multi_requests            0                       # Number of requests hitting in the snoop filter with multiple (>1) holders of the requested data.
system.tol3bus.snoop_filter.tot_snoops           1204                       # Total number of snoops made to the snoop filter.
system.tol3bus.snoop_filter.hit_single_snoops         1204                       # Number of snoops hitting in the snoop filter with a single holder of the requested data.
system.tol3bus.snoop_filter.hit_multi_snoops            0                       # Number of snoops hitting in the snoop filter with multiple (>1) holders of the requested data.
system.tol3bus.pwrStateResidencyTicks::UNDEFINED 191497655210778                       # Cumulative time (in ticks) in various power states
system.tol3bus.trans_dist::ReadResp           5401181                       # Transaction distribution
system.tol3bus.trans_dist::WritebackDirty      4531304                       # Transaction distribution
system.tol3bus.trans_dist::CleanEvict         3794347                       # Transaction distribution
system.tol3bus.trans_dist::UpgradeReq               5                       # Transaction distribution
system.tol3bus.trans_dist::UpgradeResp              5                       # Transaction distribution
system.tol3bus.trans_dist::ReadExReq          2175405                       # Transaction distribution
system.tol3bus.trans_dist::ReadExResp         2175405                       # Transaction distribution
system.tol3bus.trans_dist::ReadSharedReq      5401181                       # Transaction distribution
system.tol3bus.pkt_count_system.cpu.l2.mem_side::system.l3.cpu_side     22725470                       # Packet count per connected master and slave (bytes)
system.tol3bus.pkt_size_system.cpu.l2.mem_side::system.l3.cpu_side    739269632                       # Cumulative packet size per connected master and slave (bytes)
system.tol3bus.snoops                          753363                       # Total snoops (count)
system.tol3bus.snoopTraffic                  35635328                       # Total snoop traffic (bytes)
system.tol3bus.snoop_fanout::samples          8329954                       # Request fanout histogram
system.tol3bus.snoop_fanout::mean            0.000145                       # Request fanout histogram
system.tol3bus.snoop_fanout::stdev           0.012022                       # Request fanout histogram
system.tol3bus.snoop_fanout::underflows             0      0.00%      0.00% # Request fanout histogram
system.tol3bus.snoop_fanout::0                8328750     99.99%     99.99% # Request fanout histogram
system.tol3bus.snoop_fanout::1                   1204      0.01%    100.00% # Request fanout histogram
system.tol3bus.snoop_fanout::overflows              0      0.00%    100.00% # Request fanout histogram
system.tol3bus.snoop_fanout::min_value              0                       # Request fanout histogram
system.tol3bus.snoop_fanout::max_value              1                       # Request fanout histogram
system.tol3bus.snoop_fanout::total            8329954                       # Request fanout histogram
system.tol3bus.reqLayer0.occupancy         6368085873                       # Layer occupancy (ticks)
system.tol3bus.reqLayer0.utilization              0.4                       # Layer utilization (%)
system.tol3bus.respLayer0.occupancy        5046007941                       # Layer occupancy (ticks)
system.tol3bus.respLayer0.utilization             0.3                       # Layer utilization (%)

---------- End Simulation Statistics   ----------
