
---------- Begin Simulation Statistics ----------
sim_seconds                                  4.484991                       # Number of seconds simulated
sim_ticks                                4484990821698                       # Number of ticks simulated
final_tick                               147961979138772                       # Number of ticks from beginning of simulation (restored from checkpoints and never reset)
sim_freq                                 1000000000000                       # Frequency of simulated ticks
host_inst_rate                                  86985                       # Simulator instruction rate (inst/s)
host_op_rate                                    86985                       # Simulator op (including micro ops) rate (op/s)
host_tick_rate                              195062476                       # Simulator tick rate (ticks/s)
host_mem_usage                                2543504                       # Number of bytes of host memory used
host_seconds                                 22992.59                       # Real time elapsed on the host
sim_insts                                  2000000011                       # Number of instructions simulated
sim_ops                                    2000000011                       # Number of ops (including micro ops) simulated
system.voltage_domain.voltage                       1                       # Voltage in Volts
system.clk_domain.clock                          1000                       # Clock period in ticks
system.mem_ctrls0.pwrStateResidencyTicks::UNDEFINED 147961979138772                       # Cumulative time (in ticks) in various power states
system.mem_ctrls0.bytes_read::cpu.inst            128                       # Number of bytes read from this memory
system.mem_ctrls0.bytes_read::cpu.data            256                       # Number of bytes read from this memory
system.mem_ctrls0.bytes_read::switch_cpus.inst        20864                       # Number of bytes read from this memory
system.mem_ctrls0.bytes_read::switch_cpus.data    440896256                       # Number of bytes read from this memory
system.mem_ctrls0.bytes_read::switch_cpus_1.inst        30912                       # Number of bytes read from this memory
system.mem_ctrls0.bytes_read::switch_cpus_1.data    345879424                       # Number of bytes read from this memory
system.mem_ctrls0.bytes_read::total         786827840                       # Number of bytes read from this memory
system.mem_ctrls0.bytes_inst_read::cpu.inst          128                       # Number of instructions bytes read from this memory
system.mem_ctrls0.bytes_inst_read::switch_cpus.inst        20864                       # Number of instructions bytes read from this memory
system.mem_ctrls0.bytes_inst_read::switch_cpus_1.inst        30912                       # Number of instructions bytes read from this memory
system.mem_ctrls0.bytes_inst_read::total        51904                       # Number of instructions bytes read from this memory
system.mem_ctrls0.bytes_written::writebacks    383685248                       # Number of bytes written to this memory
system.mem_ctrls0.bytes_written::total      383685248                       # Number of bytes written to this memory
system.mem_ctrls0.num_reads::cpu.inst               2                       # Number of read requests responded to by this memory
system.mem_ctrls0.num_reads::cpu.data               4                       # Number of read requests responded to by this memory
system.mem_ctrls0.num_reads::switch_cpus.inst          326                       # Number of read requests responded to by this memory
system.mem_ctrls0.num_reads::switch_cpus.data      6889004                       # Number of read requests responded to by this memory
system.mem_ctrls0.num_reads::switch_cpus_1.inst          483                       # Number of read requests responded to by this memory
system.mem_ctrls0.num_reads::switch_cpus_1.data      5404366                       # Number of read requests responded to by this memory
system.mem_ctrls0.num_reads::total           12294185                       # Number of read requests responded to by this memory
system.mem_ctrls0.num_writes::writebacks      5995082                       # Number of write requests responded to by this memory
system.mem_ctrls0.num_writes::total           5995082                       # Number of write requests responded to by this memory
system.mem_ctrls0.bw_read::cpu.inst                29                       # Total read bandwidth from this memory (bytes/s)
system.mem_ctrls0.bw_read::cpu.data                57                       # Total read bandwidth from this memory (bytes/s)
system.mem_ctrls0.bw_read::switch_cpus.inst         4652                       # Total read bandwidth from this memory (bytes/s)
system.mem_ctrls0.bw_read::switch_cpus.data     98304829                       # Total read bandwidth from this memory (bytes/s)
system.mem_ctrls0.bw_read::switch_cpus_1.inst         6892                       # Total read bandwidth from this memory (bytes/s)
system.mem_ctrls0.bw_read::switch_cpus_1.data     77119316                       # Total read bandwidth from this memory (bytes/s)
system.mem_ctrls0.bw_read::total            175435775                       # Total read bandwidth from this memory (bytes/s)
system.mem_ctrls0.bw_inst_read::cpu.inst           29                       # Instruction read bandwidth from this memory (bytes/s)
system.mem_ctrls0.bw_inst_read::switch_cpus.inst         4652                       # Instruction read bandwidth from this memory (bytes/s)
system.mem_ctrls0.bw_inst_read::switch_cpus_1.inst         6892                       # Instruction read bandwidth from this memory (bytes/s)
system.mem_ctrls0.bw_inst_read::total           11573                       # Instruction read bandwidth from this memory (bytes/s)
system.mem_ctrls0.bw_write::writebacks       85548725                       # Write bandwidth from this memory (bytes/s)
system.mem_ctrls0.bw_write::total            85548725                       # Write bandwidth from this memory (bytes/s)
system.mem_ctrls0.bw_total::writebacks       85548725                       # Total bandwidth to/from this memory (bytes/s)
system.mem_ctrls0.bw_total::cpu.inst               29                       # Total bandwidth to/from this memory (bytes/s)
system.mem_ctrls0.bw_total::cpu.data               57                       # Total bandwidth to/from this memory (bytes/s)
system.mem_ctrls0.bw_total::switch_cpus.inst         4652                       # Total bandwidth to/from this memory (bytes/s)
system.mem_ctrls0.bw_total::switch_cpus.data     98304829                       # Total bandwidth to/from this memory (bytes/s)
system.mem_ctrls0.bw_total::switch_cpus_1.inst         6892                       # Total bandwidth to/from this memory (bytes/s)
system.mem_ctrls0.bw_total::switch_cpus_1.data     77119316                       # Total bandwidth to/from this memory (bytes/s)
system.mem_ctrls0.bw_total::total           260984500                       # Total bandwidth to/from this memory (bytes/s)
system.mem_ctrls0.readReqs                   12294185                       # Number of read requests accepted
system.mem_ctrls0.writeReqs                   5995082                       # Number of write requests accepted
system.mem_ctrls0.readBursts                 12294185                       # Number of DRAM read bursts, including those serviced by the write queue
system.mem_ctrls0.writeBursts                 5995082                       # Number of DRAM write bursts, including those merged in the write queue
system.mem_ctrls0.bytesReadDRAM             786811712                       # Total number of bytes read from DRAM
system.mem_ctrls0.bytesReadWrQ                  16128                       # Total number of bytes read from write queue
system.mem_ctrls0.bytesWritten              383683200                       # Total number of bytes written to DRAM
system.mem_ctrls0.bytesReadSys              786827840                       # Total read bytes from the system interface side
system.mem_ctrls0.bytesWrittenSys           383685248                       # Total written bytes from the system interface side
system.mem_ctrls0.servicedByWrQ                   252                       # Number of DRAM read bursts serviced by the write queue
system.mem_ctrls0.mergedWrBursts                   12                       # Number of DRAM write bursts merged with an existing one
system.mem_ctrls0.neitherReadNorWriteReqs            0                       # Number of requests that are neither read nor write
system.mem_ctrls0.perBankRdBursts::0           768814                       # Per bank write bursts
system.mem_ctrls0.perBankRdBursts::1           768868                       # Per bank write bursts
system.mem_ctrls0.perBankRdBursts::2           768077                       # Per bank write bursts
system.mem_ctrls0.perBankRdBursts::3           766182                       # Per bank write bursts
system.mem_ctrls0.perBankRdBursts::4           767015                       # Per bank write bursts
system.mem_ctrls0.perBankRdBursts::5           767336                       # Per bank write bursts
system.mem_ctrls0.perBankRdBursts::6           768376                       # Per bank write bursts
system.mem_ctrls0.perBankRdBursts::7           767644                       # Per bank write bursts
system.mem_ctrls0.perBankRdBursts::8           766693                       # Per bank write bursts
system.mem_ctrls0.perBankRdBursts::9           767170                       # Per bank write bursts
system.mem_ctrls0.perBankRdBursts::10          768962                       # Per bank write bursts
system.mem_ctrls0.perBankRdBursts::11          772169                       # Per bank write bursts
system.mem_ctrls0.perBankRdBursts::12          771296                       # Per bank write bursts
system.mem_ctrls0.perBankRdBursts::13          769288                       # Per bank write bursts
system.mem_ctrls0.perBankRdBursts::14          768309                       # Per bank write bursts
system.mem_ctrls0.perBankRdBursts::15          767734                       # Per bank write bursts
system.mem_ctrls0.perBankWrBursts::0           376200                       # Per bank write bursts
system.mem_ctrls0.perBankWrBursts::1           376062                       # Per bank write bursts
system.mem_ctrls0.perBankWrBursts::2           375085                       # Per bank write bursts
system.mem_ctrls0.perBankWrBursts::3           373746                       # Per bank write bursts
system.mem_ctrls0.perBankWrBursts::4           374022                       # Per bank write bursts
system.mem_ctrls0.perBankWrBursts::5           374756                       # Per bank write bursts
system.mem_ctrls0.perBankWrBursts::6           375711                       # Per bank write bursts
system.mem_ctrls0.perBankWrBursts::7           374301                       # Per bank write bursts
system.mem_ctrls0.perBankWrBursts::8           373013                       # Per bank write bursts
system.mem_ctrls0.perBankWrBursts::9           372645                       # Per bank write bursts
system.mem_ctrls0.perBankWrBursts::10          374284                       # Per bank write bursts
system.mem_ctrls0.perBankWrBursts::11          376456                       # Per bank write bursts
system.mem_ctrls0.perBankWrBursts::12          375927                       # Per bank write bursts
system.mem_ctrls0.perBankWrBursts::13          374115                       # Per bank write bursts
system.mem_ctrls0.perBankWrBursts::14          374160                       # Per bank write bursts
system.mem_ctrls0.perBankWrBursts::15          374567                       # Per bank write bursts
system.mem_ctrls0.numRdRetry                        0                       # Number of times read queue was full causing retry
system.mem_ctrls0.numWrRetry                        0                       # Number of times write queue was full causing retry
system.mem_ctrls0.totGap                 4484990726793                       # Total gap between requests
system.mem_ctrls0.readPktSize::0                    0                       # Read request sizes (log2)
system.mem_ctrls0.readPktSize::1                    0                       # Read request sizes (log2)
system.mem_ctrls0.readPktSize::2                    0                       # Read request sizes (log2)
system.mem_ctrls0.readPktSize::3                    0                       # Read request sizes (log2)
system.mem_ctrls0.readPktSize::4                    0                       # Read request sizes (log2)
system.mem_ctrls0.readPktSize::5                    0                       # Read request sizes (log2)
system.mem_ctrls0.readPktSize::6             12294185                       # Read request sizes (log2)
system.mem_ctrls0.writePktSize::0                   0                       # Write request sizes (log2)
system.mem_ctrls0.writePktSize::1                   0                       # Write request sizes (log2)
system.mem_ctrls0.writePktSize::2                   0                       # Write request sizes (log2)
system.mem_ctrls0.writePktSize::3                   0                       # Write request sizes (log2)
system.mem_ctrls0.writePktSize::4                   0                       # Write request sizes (log2)
system.mem_ctrls0.writePktSize::5                   0                       # Write request sizes (log2)
system.mem_ctrls0.writePktSize::6             5995082                       # Write request sizes (log2)
system.mem_ctrls0.rdQLenPdf::0               10619915                       # What read queue length does an incoming req see
system.mem_ctrls0.rdQLenPdf::1                1248346                       # What read queue length does an incoming req see
system.mem_ctrls0.rdQLenPdf::2                 365924                       # What read queue length does an incoming req see
system.mem_ctrls0.rdQLenPdf::3                  59746                       # What read queue length does an incoming req see
system.mem_ctrls0.rdQLenPdf::4                      2                       # What read queue length does an incoming req see
system.mem_ctrls0.rdQLenPdf::5                      0                       # What read queue length does an incoming req see
system.mem_ctrls0.rdQLenPdf::6                      0                       # What read queue length does an incoming req see
system.mem_ctrls0.rdQLenPdf::7                      0                       # What read queue length does an incoming req see
system.mem_ctrls0.rdQLenPdf::8                      0                       # What read queue length does an incoming req see
system.mem_ctrls0.rdQLenPdf::9                      0                       # What read queue length does an incoming req see
system.mem_ctrls0.rdQLenPdf::10                     0                       # What read queue length does an incoming req see
system.mem_ctrls0.rdQLenPdf::11                     0                       # What read queue length does an incoming req see
system.mem_ctrls0.rdQLenPdf::12                     0                       # What read queue length does an incoming req see
system.mem_ctrls0.rdQLenPdf::13                     0                       # What read queue length does an incoming req see
system.mem_ctrls0.rdQLenPdf::14                     0                       # What read queue length does an incoming req see
system.mem_ctrls0.rdQLenPdf::15                     0                       # What read queue length does an incoming req see
system.mem_ctrls0.rdQLenPdf::16                     0                       # What read queue length does an incoming req see
system.mem_ctrls0.rdQLenPdf::17                     0                       # What read queue length does an incoming req see
system.mem_ctrls0.rdQLenPdf::18                     0                       # What read queue length does an incoming req see
system.mem_ctrls0.rdQLenPdf::19                     0                       # What read queue length does an incoming req see
system.mem_ctrls0.rdQLenPdf::20                     0                       # What read queue length does an incoming req see
system.mem_ctrls0.rdQLenPdf::21                     0                       # What read queue length does an incoming req see
system.mem_ctrls0.rdQLenPdf::22                     0                       # What read queue length does an incoming req see
system.mem_ctrls0.rdQLenPdf::23                     0                       # What read queue length does an incoming req see
system.mem_ctrls0.rdQLenPdf::24                     0                       # What read queue length does an incoming req see
system.mem_ctrls0.rdQLenPdf::25                     0                       # What read queue length does an incoming req see
system.mem_ctrls0.rdQLenPdf::26                     0                       # What read queue length does an incoming req see
system.mem_ctrls0.rdQLenPdf::27                     0                       # What read queue length does an incoming req see
system.mem_ctrls0.rdQLenPdf::28                     0                       # What read queue length does an incoming req see
system.mem_ctrls0.rdQLenPdf::29                     0                       # What read queue length does an incoming req see
system.mem_ctrls0.rdQLenPdf::30                     0                       # What read queue length does an incoming req see
system.mem_ctrls0.rdQLenPdf::31                     0                       # What read queue length does an incoming req see
system.mem_ctrls0.wrQLenPdf::0                      2                       # What write queue length does an incoming req see
system.mem_ctrls0.wrQLenPdf::1                      2                       # What write queue length does an incoming req see
system.mem_ctrls0.wrQLenPdf::2                      2                       # What write queue length does an incoming req see
system.mem_ctrls0.wrQLenPdf::3                      2                       # What write queue length does an incoming req see
system.mem_ctrls0.wrQLenPdf::4                      2                       # What write queue length does an incoming req see
system.mem_ctrls0.wrQLenPdf::5                      2                       # What write queue length does an incoming req see
system.mem_ctrls0.wrQLenPdf::6                      2                       # What write queue length does an incoming req see
system.mem_ctrls0.wrQLenPdf::7                      2                       # What write queue length does an incoming req see
system.mem_ctrls0.wrQLenPdf::8                      2                       # What write queue length does an incoming req see
system.mem_ctrls0.wrQLenPdf::9                      2                       # What write queue length does an incoming req see
system.mem_ctrls0.wrQLenPdf::10                     2                       # What write queue length does an incoming req see
system.mem_ctrls0.wrQLenPdf::11                     2                       # What write queue length does an incoming req see
system.mem_ctrls0.wrQLenPdf::12                     2                       # What write queue length does an incoming req see
system.mem_ctrls0.wrQLenPdf::13                     2                       # What write queue length does an incoming req see
system.mem_ctrls0.wrQLenPdf::14                     2                       # What write queue length does an incoming req see
system.mem_ctrls0.wrQLenPdf::15                259614                       # What write queue length does an incoming req see
system.mem_ctrls0.wrQLenPdf::16                277113                       # What write queue length does an incoming req see
system.mem_ctrls0.wrQLenPdf::17                330504                       # What write queue length does an incoming req see
system.mem_ctrls0.wrQLenPdf::18                338836                       # What write queue length does an incoming req see
system.mem_ctrls0.wrQLenPdf::19                340218                       # What write queue length does an incoming req see
system.mem_ctrls0.wrQLenPdf::20                340694                       # What write queue length does an incoming req see
system.mem_ctrls0.wrQLenPdf::21                341016                       # What write queue length does an incoming req see
system.mem_ctrls0.wrQLenPdf::22                341545                       # What write queue length does an incoming req see
system.mem_ctrls0.wrQLenPdf::23                342009                       # What write queue length does an incoming req see
system.mem_ctrls0.wrQLenPdf::24                341921                       # What write queue length does an incoming req see
system.mem_ctrls0.wrQLenPdf::25                341589                       # What write queue length does an incoming req see
system.mem_ctrls0.wrQLenPdf::26                341635                       # What write queue length does an incoming req see
system.mem_ctrls0.wrQLenPdf::27                341876                       # What write queue length does an incoming req see
system.mem_ctrls0.wrQLenPdf::28                342288                       # What write queue length does an incoming req see
system.mem_ctrls0.wrQLenPdf::29                343444                       # What write queue length does an incoming req see
system.mem_ctrls0.wrQLenPdf::30                350159                       # What write queue length does an incoming req see
system.mem_ctrls0.wrQLenPdf::31                340347                       # What write queue length does an incoming req see
system.mem_ctrls0.wrQLenPdf::32                339463                       # What write queue length does an incoming req see
system.mem_ctrls0.wrQLenPdf::33                   637                       # What write queue length does an incoming req see
system.mem_ctrls0.wrQLenPdf::34                    80                       # What write queue length does an incoming req see
system.mem_ctrls0.wrQLenPdf::35                    25                       # What write queue length does an incoming req see
system.mem_ctrls0.wrQLenPdf::36                     9                       # What write queue length does an incoming req see
system.mem_ctrls0.wrQLenPdf::37                     4                       # What write queue length does an incoming req see
system.mem_ctrls0.wrQLenPdf::38                     4                       # What write queue length does an incoming req see
system.mem_ctrls0.wrQLenPdf::39                     5                       # What write queue length does an incoming req see
system.mem_ctrls0.wrQLenPdf::40                     4                       # What write queue length does an incoming req see
system.mem_ctrls0.wrQLenPdf::41                     1                       # What write queue length does an incoming req see
system.mem_ctrls0.wrQLenPdf::42                     0                       # What write queue length does an incoming req see
system.mem_ctrls0.wrQLenPdf::43                     0                       # What write queue length does an incoming req see
system.mem_ctrls0.wrQLenPdf::44                     0                       # What write queue length does an incoming req see
system.mem_ctrls0.wrQLenPdf::45                     0                       # What write queue length does an incoming req see
system.mem_ctrls0.wrQLenPdf::46                     0                       # What write queue length does an incoming req see
system.mem_ctrls0.wrQLenPdf::47                     0                       # What write queue length does an incoming req see
system.mem_ctrls0.wrQLenPdf::48                     0                       # What write queue length does an incoming req see
system.mem_ctrls0.wrQLenPdf::49                     0                       # What write queue length does an incoming req see
system.mem_ctrls0.wrQLenPdf::50                     0                       # What write queue length does an incoming req see
system.mem_ctrls0.wrQLenPdf::51                     0                       # What write queue length does an incoming req see
system.mem_ctrls0.wrQLenPdf::52                     0                       # What write queue length does an incoming req see
system.mem_ctrls0.wrQLenPdf::53                     0                       # What write queue length does an incoming req see
system.mem_ctrls0.wrQLenPdf::54                     0                       # What write queue length does an incoming req see
system.mem_ctrls0.wrQLenPdf::55                     0                       # What write queue length does an incoming req see
system.mem_ctrls0.wrQLenPdf::56                     0                       # What write queue length does an incoming req see
system.mem_ctrls0.wrQLenPdf::57                     0                       # What write queue length does an incoming req see
system.mem_ctrls0.wrQLenPdf::58                     0                       # What write queue length does an incoming req see
system.mem_ctrls0.wrQLenPdf::59                     0                       # What write queue length does an incoming req see
system.mem_ctrls0.wrQLenPdf::60                     0                       # What write queue length does an incoming req see
system.mem_ctrls0.wrQLenPdf::61                     0                       # What write queue length does an incoming req see
system.mem_ctrls0.wrQLenPdf::62                     0                       # What write queue length does an incoming req see
system.mem_ctrls0.wrQLenPdf::63                     0                       # What write queue length does an incoming req see
system.mem_ctrls0.bytesPerActivate::samples     12846913                       # Bytes accessed per row activation
system.mem_ctrls0.bytesPerActivate::mean    91.110941                       # Bytes accessed per row activation
system.mem_ctrls0.bytesPerActivate::gmean    81.209750                       # Bytes accessed per row activation
system.mem_ctrls0.bytesPerActivate::stdev    58.671414                       # Bytes accessed per row activation
system.mem_ctrls0.bytesPerActivate::0-127      9380236     73.02%     73.02% # Bytes accessed per row activation
system.mem_ctrls0.bytesPerActivate::128-255      3041878     23.68%     96.69% # Bytes accessed per row activation
system.mem_ctrls0.bytesPerActivate::256-383       318417      2.48%     99.17% # Bytes accessed per row activation
system.mem_ctrls0.bytesPerActivate::384-511        76077      0.59%     99.76% # Bytes accessed per row activation
system.mem_ctrls0.bytesPerActivate::512-639        18858      0.15%     99.91% # Bytes accessed per row activation
system.mem_ctrls0.bytesPerActivate::640-767         6890      0.05%     99.96% # Bytes accessed per row activation
system.mem_ctrls0.bytesPerActivate::768-895         2221      0.02%     99.98% # Bytes accessed per row activation
system.mem_ctrls0.bytesPerActivate::896-1023          814      0.01%     99.99% # Bytes accessed per row activation
system.mem_ctrls0.bytesPerActivate::1024-1151         1522      0.01%    100.00% # Bytes accessed per row activation
system.mem_ctrls0.bytesPerActivate::total     12846913                       # Bytes accessed per row activation
system.mem_ctrls0.rdPerTurnAround::samples       338852                       # Reads before turning the bus around for writes
system.mem_ctrls0.rdPerTurnAround::mean     36.281126                       # Reads before turning the bus around for writes
system.mem_ctrls0.rdPerTurnAround::stdev   440.057812                       # Reads before turning the bus around for writes
system.mem_ctrls0.rdPerTurnAround::0-8191       338830     99.99%     99.99% # Reads before turning the bus around for writes
system.mem_ctrls0.rdPerTurnAround::8192-16383           11      0.00%    100.00% # Reads before turning the bus around for writes
system.mem_ctrls0.rdPerTurnAround::16384-24575            3      0.00%    100.00% # Reads before turning the bus around for writes
system.mem_ctrls0.rdPerTurnAround::24576-32767            4      0.00%    100.00% # Reads before turning the bus around for writes
system.mem_ctrls0.rdPerTurnAround::57344-65535            1      0.00%    100.00% # Reads before turning the bus around for writes
system.mem_ctrls0.rdPerTurnAround::131072-139263            3      0.00%    100.00% # Reads before turning the bus around for writes
system.mem_ctrls0.rdPerTurnAround::total       338852                       # Reads before turning the bus around for writes
system.mem_ctrls0.wrPerTurnAround::samples       338852                       # Writes before turning the bus around for reads
system.mem_ctrls0.wrPerTurnAround::mean     17.692237                       # Writes before turning the bus around for reads
system.mem_ctrls0.wrPerTurnAround::gmean    17.668776                       # Writes before turning the bus around for reads
system.mem_ctrls0.wrPerTurnAround::stdev     0.912846                       # Writes before turning the bus around for reads
system.mem_ctrls0.wrPerTurnAround::16           59803     17.65%     17.65% # Writes before turning the bus around for reads
system.mem_ctrls0.wrPerTurnAround::17           16272      4.80%     22.45% # Writes before turning the bus around for reads
system.mem_ctrls0.wrPerTurnAround::18          236368     69.76%     92.21% # Writes before turning the bus around for reads
system.mem_ctrls0.wrPerTurnAround::19           22494      6.64%     98.84% # Writes before turning the bus around for reads
system.mem_ctrls0.wrPerTurnAround::20            3481      1.03%     99.87% # Writes before turning the bus around for reads
system.mem_ctrls0.wrPerTurnAround::21             304      0.09%     99.96% # Writes before turning the bus around for reads
system.mem_ctrls0.wrPerTurnAround::22              34      0.01%     99.97% # Writes before turning the bus around for reads
system.mem_ctrls0.wrPerTurnAround::23              18      0.01%     99.98% # Writes before turning the bus around for reads
system.mem_ctrls0.wrPerTurnAround::24              12      0.00%     99.98% # Writes before turning the bus around for reads
system.mem_ctrls0.wrPerTurnAround::25              10      0.00%     99.98% # Writes before turning the bus around for reads
system.mem_ctrls0.wrPerTurnAround::26               5      0.00%     99.98% # Writes before turning the bus around for reads
system.mem_ctrls0.wrPerTurnAround::27              14      0.00%     99.99% # Writes before turning the bus around for reads
system.mem_ctrls0.wrPerTurnAround::28               8      0.00%     99.99% # Writes before turning the bus around for reads
system.mem_ctrls0.wrPerTurnAround::29               2      0.00%     99.99% # Writes before turning the bus around for reads
system.mem_ctrls0.wrPerTurnAround::30               4      0.00%     99.99% # Writes before turning the bus around for reads
system.mem_ctrls0.wrPerTurnAround::31               3      0.00%     99.99% # Writes before turning the bus around for reads
system.mem_ctrls0.wrPerTurnAround::32               1      0.00%     99.99% # Writes before turning the bus around for reads
system.mem_ctrls0.wrPerTurnAround::33               2      0.00%     99.99% # Writes before turning the bus around for reads
system.mem_ctrls0.wrPerTurnAround::34               1      0.00%    100.00% # Writes before turning the bus around for reads
system.mem_ctrls0.wrPerTurnAround::35               1      0.00%    100.00% # Writes before turning the bus around for reads
system.mem_ctrls0.wrPerTurnAround::36               1      0.00%    100.00% # Writes before turning the bus around for reads
system.mem_ctrls0.wrPerTurnAround::38               4      0.00%    100.00% # Writes before turning the bus around for reads
system.mem_ctrls0.wrPerTurnAround::40               1      0.00%    100.00% # Writes before turning the bus around for reads
system.mem_ctrls0.wrPerTurnAround::41               1      0.00%    100.00% # Writes before turning the bus around for reads
system.mem_ctrls0.wrPerTurnAround::42               1      0.00%    100.00% # Writes before turning the bus around for reads
system.mem_ctrls0.wrPerTurnAround::46               1      0.00%    100.00% # Writes before turning the bus around for reads
system.mem_ctrls0.wrPerTurnAround::50               1      0.00%    100.00% # Writes before turning the bus around for reads
system.mem_ctrls0.wrPerTurnAround::52               1      0.00%    100.00% # Writes before turning the bus around for reads
system.mem_ctrls0.wrPerTurnAround::56               1      0.00%    100.00% # Writes before turning the bus around for reads
system.mem_ctrls0.wrPerTurnAround::59               2      0.00%    100.00% # Writes before turning the bus around for reads
system.mem_ctrls0.wrPerTurnAround::61               1      0.00%    100.00% # Writes before turning the bus around for reads
system.mem_ctrls0.wrPerTurnAround::total       338852                       # Writes before turning the bus around for reads
system.mem_ctrls0.totQLat                343095922776                       # Total ticks spent queuing
system.mem_ctrls0.totMemAccLat           573607166526                       # Total ticks spent from burst creation until serviced by the DRAM
system.mem_ctrls0.totBusLat               61469665000                       # Total ticks spent in databus transfers
system.mem_ctrls0.avgQLat                    27907.74                       # Average queueing delay per DRAM burst
system.mem_ctrls0.avgBusLat                   5000.00                       # Average bus latency per DRAM burst
system.mem_ctrls0.avgMemAccLat               46657.74                       # Average memory access latency per DRAM burst
system.mem_ctrls0.avgRdBW                      175.43                       # Average DRAM read bandwidth in MiByte/s
system.mem_ctrls0.avgWrBW                       85.55                       # Average achieved write bandwidth in MiByte/s
system.mem_ctrls0.avgRdBWSys                   175.44                       # Average system read bandwidth in MiByte/s
system.mem_ctrls0.avgWrBWSys                    85.55                       # Average system write bandwidth in MiByte/s
system.mem_ctrls0.peakBW                     12800.00                       # Theoretical peak bandwidth in MiByte/s
system.mem_ctrls0.busUtil                        2.04                       # Data bus utilization in percentage
system.mem_ctrls0.busUtilRead                    1.37                       # Data bus utilization in percentage for reads
system.mem_ctrls0.busUtilWrite                   0.67                       # Data bus utilization in percentage for writes
system.mem_ctrls0.avgRdQLen                      1.09                       # Average read queue length when enqueuing
system.mem_ctrls0.avgWrQLen                     24.63                       # Average write queue length when enqueuing
system.mem_ctrls0.readRowHits                 4145220                       # Number of row buffer hits during reads
system.mem_ctrls0.writeRowHits                1296843                       # Number of row buffer hits during writes
system.mem_ctrls0.readRowHitRate                33.72                       # Row buffer hit rate for reads
system.mem_ctrls0.writeRowHitRate               21.63                       # Row buffer hit rate for writes
system.mem_ctrls0.avgGap                    245225.29                       # Average gap between requests
system.mem_ctrls0.pageHitRate                   29.76                       # Row buffer hit rate, read and write combined
system.mem_ctrls0_0.actEnergy             45826283580                       # Energy for activate commands per rank (pJ)
system.mem_ctrls0_0.preEnergy             24357239775                       # Energy for precharge commands per rank (pJ)
system.mem_ctrls0_0.readEnergy            43856107680                       # Energy for read commands per rank (pJ)
system.mem_ctrls0_0.writeEnergy           15659389260                       # Energy for write commands per rank (pJ)
system.mem_ctrls0_0.refreshEnergy        353424146400.000061                       # Energy for refresh commands per rank (pJ)
system.mem_ctrls0_0.actBackEnergy        291451354620                       # Energy for active background per rank (pJ)
system.mem_ctrls0_0.preBackEnergy          9335713920                       # Energy for precharge background per rank (pJ)
system.mem_ctrls0_0.actPowerDownEnergy   1498094733180                       # Energy for active power-down per rank (pJ)
system.mem_ctrls0_0.prePowerDownEnergy   169930737600                       # Energy for precharge power-down per rank (pJ)
system.mem_ctrls0_0.selfRefreshEnergy     29042674620                       # Energy for self refresh per rank (pJ)
system.mem_ctrls0_0.totalEnergy          2481022117995                       # Total energy per rank (pJ)
system.mem_ctrls0_0.averagePower           553.183317                       # Core power per rank (mW)
system.mem_ctrls0_0.totalIdleTime        3821409490516                       # Total Idle time Per DRAM Rank
system.mem_ctrls0_0.memoryStateTime::IDLE   6451120911                       # Time in different power states
system.mem_ctrls0_0.memoryStateTime::REF 149578260000                       # Time in different power states
system.mem_ctrls0_0.memoryStateTime::SREF  93610654158                       # Time in different power states
system.mem_ctrls0_0.memoryStateTime::PRE_PDN 442522657526                       # Time in different power states
system.mem_ctrls0_0.memoryStateTime::ACT 507551598309                       # Time in different power states
system.mem_ctrls0_0.memoryStateTime::ACT_PDN 3285276530794                       # Time in different power states
system.mem_ctrls0_1.actEnergy             45900725220                       # Energy for activate commands per rank (pJ)
system.mem_ctrls0_1.preEnergy             24396795060                       # Energy for precharge commands per rank (pJ)
system.mem_ctrls0_1.readEnergy            43922573940                       # Energy for read commands per rank (pJ)
system.mem_ctrls0_1.writeEnergy           15634771740                       # Energy for write commands per rank (pJ)
system.mem_ctrls0_1.refreshEnergy        353024630400.000061                       # Energy for refresh commands per rank (pJ)
system.mem_ctrls0_1.actBackEnergy        290795894520                       # Energy for active background per rank (pJ)
system.mem_ctrls0_1.preBackEnergy          9290340000                       # Energy for precharge background per rank (pJ)
system.mem_ctrls0_1.actPowerDownEnergy   1500334556160                       # Energy for active power-down per rank (pJ)
system.mem_ctrls0_1.prePowerDownEnergy   168301437600                       # Energy for precharge power-down per rank (pJ)
system.mem_ctrls0_1.selfRefreshEnergy     28937313360                       # Energy for self refresh per rank (pJ)
system.mem_ctrls0_1.totalEnergy          2480579242410                       # Total energy per rank (pJ)
system.mem_ctrls0_1.averagePower           553.084572                       # Core power per rank (mW)
system.mem_ctrls0_1.totalIdleTime        3822985901787                       # Total Idle time Per DRAM Rank
system.mem_ctrls0_1.memoryStateTime::IDLE   6296740033                       # Time in different power states
system.mem_ctrls0_1.memoryStateTime::REF 149405294000                       # Time in different power states
system.mem_ctrls0_1.memoryStateTime::SREF  94505101303                       # Time in different power states
system.mem_ctrls0_1.memoryStateTime::PRE_PDN 438287274921                       # Time in different power states
system.mem_ctrls0_1.memoryStateTime::ACT 506302885878                       # Time in different power states
system.mem_ctrls0_1.memoryStateTime::ACT_PDN 3290193525563                       # Time in different power states
system.mem_ctrls1.pwrStateResidencyTicks::UNDEFINED 147961979138772                       # Cumulative time (in ticks) in various power states
system.mem_ctrls1.bytes_read::cpu.inst             64                       # Number of bytes read from this memory
system.mem_ctrls1.bytes_read::cpu.data             64                       # Number of bytes read from this memory
system.mem_ctrls1.bytes_read::switch_cpus.inst        20288                       # Number of bytes read from this memory
system.mem_ctrls1.bytes_read::switch_cpus.data    440852160                       # Number of bytes read from this memory
system.mem_ctrls1.bytes_read::switch_cpus_1.inst        31232                       # Number of bytes read from this memory
system.mem_ctrls1.bytes_read::switch_cpus_1.data    345817856                       # Number of bytes read from this memory
system.mem_ctrls1.bytes_read::total         786721664                       # Number of bytes read from this memory
system.mem_ctrls1.bytes_inst_read::cpu.inst           64                       # Number of instructions bytes read from this memory
system.mem_ctrls1.bytes_inst_read::switch_cpus.inst        20288                       # Number of instructions bytes read from this memory
system.mem_ctrls1.bytes_inst_read::switch_cpus_1.inst        31232                       # Number of instructions bytes read from this memory
system.mem_ctrls1.bytes_inst_read::total        51584                       # Number of instructions bytes read from this memory
system.mem_ctrls1.bytes_written::writebacks    383683968                       # Number of bytes written to this memory
system.mem_ctrls1.bytes_written::total      383683968                       # Number of bytes written to this memory
system.mem_ctrls1.num_reads::cpu.inst               1                       # Number of read requests responded to by this memory
system.mem_ctrls1.num_reads::cpu.data               1                       # Number of read requests responded to by this memory
system.mem_ctrls1.num_reads::switch_cpus.inst          317                       # Number of read requests responded to by this memory
system.mem_ctrls1.num_reads::switch_cpus.data      6888315                       # Number of read requests responded to by this memory
system.mem_ctrls1.num_reads::switch_cpus_1.inst          488                       # Number of read requests responded to by this memory
system.mem_ctrls1.num_reads::switch_cpus_1.data      5403404                       # Number of read requests responded to by this memory
system.mem_ctrls1.num_reads::total           12292526                       # Number of read requests responded to by this memory
system.mem_ctrls1.num_writes::writebacks      5995062                       # Number of write requests responded to by this memory
system.mem_ctrls1.num_writes::total           5995062                       # Number of write requests responded to by this memory
system.mem_ctrls1.bw_read::cpu.inst                14                       # Total read bandwidth from this memory (bytes/s)
system.mem_ctrls1.bw_read::cpu.data                14                       # Total read bandwidth from this memory (bytes/s)
system.mem_ctrls1.bw_read::switch_cpus.inst         4524                       # Total read bandwidth from this memory (bytes/s)
system.mem_ctrls1.bw_read::switch_cpus.data     98294997                       # Total read bandwidth from this memory (bytes/s)
system.mem_ctrls1.bw_read::switch_cpus_1.inst         6964                       # Total read bandwidth from this memory (bytes/s)
system.mem_ctrls1.bw_read::switch_cpus_1.data     77105588                       # Total read bandwidth from this memory (bytes/s)
system.mem_ctrls1.bw_read::total            175412101                       # Total read bandwidth from this memory (bytes/s)
system.mem_ctrls1.bw_inst_read::cpu.inst           14                       # Instruction read bandwidth from this memory (bytes/s)
system.mem_ctrls1.bw_inst_read::switch_cpus.inst         4524                       # Instruction read bandwidth from this memory (bytes/s)
system.mem_ctrls1.bw_inst_read::switch_cpus_1.inst         6964                       # Instruction read bandwidth from this memory (bytes/s)
system.mem_ctrls1.bw_inst_read::total           11501                       # Instruction read bandwidth from this memory (bytes/s)
system.mem_ctrls1.bw_write::writebacks       85548440                       # Write bandwidth from this memory (bytes/s)
system.mem_ctrls1.bw_write::total            85548440                       # Write bandwidth from this memory (bytes/s)
system.mem_ctrls1.bw_total::writebacks       85548440                       # Total bandwidth to/from this memory (bytes/s)
system.mem_ctrls1.bw_total::cpu.inst               14                       # Total bandwidth to/from this memory (bytes/s)
system.mem_ctrls1.bw_total::cpu.data               14                       # Total bandwidth to/from this memory (bytes/s)
system.mem_ctrls1.bw_total::switch_cpus.inst         4524                       # Total bandwidth to/from this memory (bytes/s)
system.mem_ctrls1.bw_total::switch_cpus.data     98294997                       # Total bandwidth to/from this memory (bytes/s)
system.mem_ctrls1.bw_total::switch_cpus_1.inst         6964                       # Total bandwidth to/from this memory (bytes/s)
system.mem_ctrls1.bw_total::switch_cpus_1.data     77105588                       # Total bandwidth to/from this memory (bytes/s)
system.mem_ctrls1.bw_total::total           260960541                       # Total bandwidth to/from this memory (bytes/s)
system.mem_ctrls1.readReqs                   12292526                       # Number of read requests accepted
system.mem_ctrls1.writeReqs                   5995062                       # Number of write requests accepted
system.mem_ctrls1.readBursts                 12292526                       # Number of DRAM read bursts, including those serviced by the write queue
system.mem_ctrls1.writeBursts                 5995062                       # Number of DRAM write bursts, including those merged in the write queue
system.mem_ctrls1.bytesReadDRAM             786705216                       # Total number of bytes read from DRAM
system.mem_ctrls1.bytesReadWrQ                  16448                       # Total number of bytes read from write queue
system.mem_ctrls1.bytesWritten              383681600                       # Total number of bytes written to DRAM
system.mem_ctrls1.bytesReadSys              786721664                       # Total read bytes from the system interface side
system.mem_ctrls1.bytesWrittenSys           383683968                       # Total written bytes from the system interface side
system.mem_ctrls1.servicedByWrQ                   257                       # Number of DRAM read bursts serviced by the write queue
system.mem_ctrls1.mergedWrBursts                   11                       # Number of DRAM write bursts merged with an existing one
system.mem_ctrls1.neitherReadNorWriteReqs            0                       # Number of requests that are neither read nor write
system.mem_ctrls1.perBankRdBursts::0           768252                       # Per bank write bursts
system.mem_ctrls1.perBankRdBursts::1           769353                       # Per bank write bursts
system.mem_ctrls1.perBankRdBursts::2           766728                       # Per bank write bursts
system.mem_ctrls1.perBankRdBursts::3           766784                       # Per bank write bursts
system.mem_ctrls1.perBankRdBursts::4           766775                       # Per bank write bursts
system.mem_ctrls1.perBankRdBursts::5           767591                       # Per bank write bursts
system.mem_ctrls1.perBankRdBursts::6           768479                       # Per bank write bursts
system.mem_ctrls1.perBankRdBursts::7           767670                       # Per bank write bursts
system.mem_ctrls1.perBankRdBursts::8           766930                       # Per bank write bursts
system.mem_ctrls1.perBankRdBursts::9           766628                       # Per bank write bursts
system.mem_ctrls1.perBankRdBursts::10          769126                       # Per bank write bursts
system.mem_ctrls1.perBankRdBursts::11          771600                       # Per bank write bursts
system.mem_ctrls1.perBankRdBursts::12          771101                       # Per bank write bursts
system.mem_ctrls1.perBankRdBursts::13          769500                       # Per bank write bursts
system.mem_ctrls1.perBankRdBursts::14          767967                       # Per bank write bursts
system.mem_ctrls1.perBankRdBursts::15          767785                       # Per bank write bursts
system.mem_ctrls1.perBankWrBursts::0           376064                       # Per bank write bursts
system.mem_ctrls1.perBankWrBursts::1           376221                       # Per bank write bursts
system.mem_ctrls1.perBankWrBursts::2           374938                       # Per bank write bursts
system.mem_ctrls1.perBankWrBursts::3           373876                       # Per bank write bursts
system.mem_ctrls1.perBankWrBursts::4           373968                       # Per bank write bursts
system.mem_ctrls1.perBankWrBursts::5           374757                       # Per bank write bursts
system.mem_ctrls1.perBankWrBursts::6           375765                       # Per bank write bursts
system.mem_ctrls1.perBankWrBursts::7           374148                       # Per bank write bursts
system.mem_ctrls1.perBankWrBursts::8           373232                       # Per bank write bursts
system.mem_ctrls1.perBankWrBursts::9           372476                       # Per bank write bursts
system.mem_ctrls1.perBankWrBursts::10          374352                       # Per bank write bursts
system.mem_ctrls1.perBankWrBursts::11          376510                       # Per bank write bursts
system.mem_ctrls1.perBankWrBursts::12          375910                       # Per bank write bursts
system.mem_ctrls1.perBankWrBursts::13          374025                       # Per bank write bursts
system.mem_ctrls1.perBankWrBursts::14          374110                       # Per bank write bursts
system.mem_ctrls1.perBankWrBursts::15          374673                       # Per bank write bursts
system.mem_ctrls1.numRdRetry                        0                       # Number of times read queue was full causing retry
system.mem_ctrls1.numWrRetry                        0                       # Number of times write queue was full causing retry
system.mem_ctrls1.totGap                 4484990370816                       # Total gap between requests
system.mem_ctrls1.readPktSize::0                    0                       # Read request sizes (log2)
system.mem_ctrls1.readPktSize::1                    0                       # Read request sizes (log2)
system.mem_ctrls1.readPktSize::2                    0                       # Read request sizes (log2)
system.mem_ctrls1.readPktSize::3                    0                       # Read request sizes (log2)
system.mem_ctrls1.readPktSize::4                    0                       # Read request sizes (log2)
system.mem_ctrls1.readPktSize::5                    0                       # Read request sizes (log2)
system.mem_ctrls1.readPktSize::6             12292526                       # Read request sizes (log2)
system.mem_ctrls1.writePktSize::0                   0                       # Write request sizes (log2)
system.mem_ctrls1.writePktSize::1                   0                       # Write request sizes (log2)
system.mem_ctrls1.writePktSize::2                   0                       # Write request sizes (log2)
system.mem_ctrls1.writePktSize::3                   0                       # Write request sizes (log2)
system.mem_ctrls1.writePktSize::4                   0                       # Write request sizes (log2)
system.mem_ctrls1.writePktSize::5                   0                       # Write request sizes (log2)
system.mem_ctrls1.writePktSize::6             5995062                       # Write request sizes (log2)
system.mem_ctrls1.rdQLenPdf::0               10618850                       # What read queue length does an incoming req see
system.mem_ctrls1.rdQLenPdf::1                1248064                       # What read queue length does an incoming req see
system.mem_ctrls1.rdQLenPdf::2                 365937                       # What read queue length does an incoming req see
system.mem_ctrls1.rdQLenPdf::3                  59417                       # What read queue length does an incoming req see
system.mem_ctrls1.rdQLenPdf::4                      1                       # What read queue length does an incoming req see
system.mem_ctrls1.rdQLenPdf::5                      0                       # What read queue length does an incoming req see
system.mem_ctrls1.rdQLenPdf::6                      0                       # What read queue length does an incoming req see
system.mem_ctrls1.rdQLenPdf::7                      0                       # What read queue length does an incoming req see
system.mem_ctrls1.rdQLenPdf::8                      0                       # What read queue length does an incoming req see
system.mem_ctrls1.rdQLenPdf::9                      0                       # What read queue length does an incoming req see
system.mem_ctrls1.rdQLenPdf::10                     0                       # What read queue length does an incoming req see
system.mem_ctrls1.rdQLenPdf::11                     0                       # What read queue length does an incoming req see
system.mem_ctrls1.rdQLenPdf::12                     0                       # What read queue length does an incoming req see
system.mem_ctrls1.rdQLenPdf::13                     0                       # What read queue length does an incoming req see
system.mem_ctrls1.rdQLenPdf::14                     0                       # What read queue length does an incoming req see
system.mem_ctrls1.rdQLenPdf::15                     0                       # What read queue length does an incoming req see
system.mem_ctrls1.rdQLenPdf::16                     0                       # What read queue length does an incoming req see
system.mem_ctrls1.rdQLenPdf::17                     0                       # What read queue length does an incoming req see
system.mem_ctrls1.rdQLenPdf::18                     0                       # What read queue length does an incoming req see
system.mem_ctrls1.rdQLenPdf::19                     0                       # What read queue length does an incoming req see
system.mem_ctrls1.rdQLenPdf::20                     0                       # What read queue length does an incoming req see
system.mem_ctrls1.rdQLenPdf::21                     0                       # What read queue length does an incoming req see
system.mem_ctrls1.rdQLenPdf::22                     0                       # What read queue length does an incoming req see
system.mem_ctrls1.rdQLenPdf::23                     0                       # What read queue length does an incoming req see
system.mem_ctrls1.rdQLenPdf::24                     0                       # What read queue length does an incoming req see
system.mem_ctrls1.rdQLenPdf::25                     0                       # What read queue length does an incoming req see
system.mem_ctrls1.rdQLenPdf::26                     0                       # What read queue length does an incoming req see
system.mem_ctrls1.rdQLenPdf::27                     0                       # What read queue length does an incoming req see
system.mem_ctrls1.rdQLenPdf::28                     0                       # What read queue length does an incoming req see
system.mem_ctrls1.rdQLenPdf::29                     0                       # What read queue length does an incoming req see
system.mem_ctrls1.rdQLenPdf::30                     0                       # What read queue length does an incoming req see
system.mem_ctrls1.rdQLenPdf::31                     0                       # What read queue length does an incoming req see
system.mem_ctrls1.wrQLenPdf::0                      2                       # What write queue length does an incoming req see
system.mem_ctrls1.wrQLenPdf::1                      2                       # What write queue length does an incoming req see
system.mem_ctrls1.wrQLenPdf::2                      2                       # What write queue length does an incoming req see
system.mem_ctrls1.wrQLenPdf::3                      2                       # What write queue length does an incoming req see
system.mem_ctrls1.wrQLenPdf::4                      2                       # What write queue length does an incoming req see
system.mem_ctrls1.wrQLenPdf::5                      2                       # What write queue length does an incoming req see
system.mem_ctrls1.wrQLenPdf::6                      2                       # What write queue length does an incoming req see
system.mem_ctrls1.wrQLenPdf::7                      2                       # What write queue length does an incoming req see
system.mem_ctrls1.wrQLenPdf::8                      2                       # What write queue length does an incoming req see
system.mem_ctrls1.wrQLenPdf::9                      2                       # What write queue length does an incoming req see
system.mem_ctrls1.wrQLenPdf::10                     2                       # What write queue length does an incoming req see
system.mem_ctrls1.wrQLenPdf::11                     2                       # What write queue length does an incoming req see
system.mem_ctrls1.wrQLenPdf::12                     2                       # What write queue length does an incoming req see
system.mem_ctrls1.wrQLenPdf::13                     2                       # What write queue length does an incoming req see
system.mem_ctrls1.wrQLenPdf::14                     2                       # What write queue length does an incoming req see
system.mem_ctrls1.wrQLenPdf::15                260110                       # What write queue length does an incoming req see
system.mem_ctrls1.wrQLenPdf::16                277446                       # What write queue length does an incoming req see
system.mem_ctrls1.wrQLenPdf::17                330818                       # What write queue length does an incoming req see
system.mem_ctrls1.wrQLenPdf::18                338879                       # What write queue length does an incoming req see
system.mem_ctrls1.wrQLenPdf::19                340348                       # What write queue length does an incoming req see
system.mem_ctrls1.wrQLenPdf::20                340663                       # What write queue length does an incoming req see
system.mem_ctrls1.wrQLenPdf::21                340972                       # What write queue length does an incoming req see
system.mem_ctrls1.wrQLenPdf::22                341484                       # What write queue length does an incoming req see
system.mem_ctrls1.wrQLenPdf::23                342151                       # What write queue length does an incoming req see
system.mem_ctrls1.wrQLenPdf::24                341681                       # What write queue length does an incoming req see
system.mem_ctrls1.wrQLenPdf::25                341474                       # What write queue length does an incoming req see
system.mem_ctrls1.wrQLenPdf::26                341692                       # What write queue length does an incoming req see
system.mem_ctrls1.wrQLenPdf::27                341938                       # What write queue length does an incoming req see
system.mem_ctrls1.wrQLenPdf::28                342031                       # What write queue length does an incoming req see
system.mem_ctrls1.wrQLenPdf::29                343417                       # What write queue length does an incoming req see
system.mem_ctrls1.wrQLenPdf::30                349588                       # What write queue length does an incoming req see
system.mem_ctrls1.wrQLenPdf::31                340233                       # What write queue length does an incoming req see
system.mem_ctrls1.wrQLenPdf::32                339379                       # What write queue length does an incoming req see
system.mem_ctrls1.wrQLenPdf::33                   565                       # What write queue length does an incoming req see
system.mem_ctrls1.wrQLenPdf::34                    85                       # What write queue length does an incoming req see
system.mem_ctrls1.wrQLenPdf::35                    21                       # What write queue length does an incoming req see
system.mem_ctrls1.wrQLenPdf::36                    15                       # What write queue length does an incoming req see
system.mem_ctrls1.wrQLenPdf::37                     9                       # What write queue length does an incoming req see
system.mem_ctrls1.wrQLenPdf::38                     6                       # What write queue length does an incoming req see
system.mem_ctrls1.wrQLenPdf::39                     4                       # What write queue length does an incoming req see
system.mem_ctrls1.wrQLenPdf::40                     4                       # What write queue length does an incoming req see
system.mem_ctrls1.wrQLenPdf::41                     3                       # What write queue length does an incoming req see
system.mem_ctrls1.wrQLenPdf::42                     2                       # What write queue length does an incoming req see
system.mem_ctrls1.wrQLenPdf::43                     1                       # What write queue length does an incoming req see
system.mem_ctrls1.wrQLenPdf::44                     1                       # What write queue length does an incoming req see
system.mem_ctrls1.wrQLenPdf::45                     1                       # What write queue length does an incoming req see
system.mem_ctrls1.wrQLenPdf::46                     0                       # What write queue length does an incoming req see
system.mem_ctrls1.wrQLenPdf::47                     0                       # What write queue length does an incoming req see
system.mem_ctrls1.wrQLenPdf::48                     0                       # What write queue length does an incoming req see
system.mem_ctrls1.wrQLenPdf::49                     0                       # What write queue length does an incoming req see
system.mem_ctrls1.wrQLenPdf::50                     0                       # What write queue length does an incoming req see
system.mem_ctrls1.wrQLenPdf::51                     0                       # What write queue length does an incoming req see
system.mem_ctrls1.wrQLenPdf::52                     0                       # What write queue length does an incoming req see
system.mem_ctrls1.wrQLenPdf::53                     0                       # What write queue length does an incoming req see
system.mem_ctrls1.wrQLenPdf::54                     0                       # What write queue length does an incoming req see
system.mem_ctrls1.wrQLenPdf::55                     0                       # What write queue length does an incoming req see
system.mem_ctrls1.wrQLenPdf::56                     0                       # What write queue length does an incoming req see
system.mem_ctrls1.wrQLenPdf::57                     0                       # What write queue length does an incoming req see
system.mem_ctrls1.wrQLenPdf::58                     0                       # What write queue length does an incoming req see
system.mem_ctrls1.wrQLenPdf::59                     0                       # What write queue length does an incoming req see
system.mem_ctrls1.wrQLenPdf::60                     0                       # What write queue length does an incoming req see
system.mem_ctrls1.wrQLenPdf::61                     0                       # What write queue length does an incoming req see
system.mem_ctrls1.wrQLenPdf::62                     0                       # What write queue length does an incoming req see
system.mem_ctrls1.wrQLenPdf::63                     0                       # What write queue length does an incoming req see
system.mem_ctrls1.bytesPerActivate::samples     12846520                       # Bytes accessed per row activation
system.mem_ctrls1.bytesPerActivate::mean    91.105274                       # Bytes accessed per row activation
system.mem_ctrls1.bytesPerActivate::gmean    81.204512                       # Bytes accessed per row activation
system.mem_ctrls1.bytesPerActivate::stdev    58.668367                       # Bytes accessed per row activation
system.mem_ctrls1.bytesPerActivate::0-127      9380803     73.02%     73.02% # Bytes accessed per row activation
system.mem_ctrls1.bytesPerActivate::128-255      3040445     23.67%     96.69% # Bytes accessed per row activation
system.mem_ctrls1.bytesPerActivate::256-383       318729      2.48%     99.17% # Bytes accessed per row activation
system.mem_ctrls1.bytesPerActivate::384-511        76257      0.59%     99.76% # Bytes accessed per row activation
system.mem_ctrls1.bytesPerActivate::512-639        18902      0.15%     99.91% # Bytes accessed per row activation
system.mem_ctrls1.bytesPerActivate::640-767         6745      0.05%     99.96% # Bytes accessed per row activation
system.mem_ctrls1.bytesPerActivate::768-895         2377      0.02%     99.98% # Bytes accessed per row activation
system.mem_ctrls1.bytesPerActivate::896-1023          747      0.01%     99.99% # Bytes accessed per row activation
system.mem_ctrls1.bytesPerActivate::1024-1151         1515      0.01%    100.00% # Bytes accessed per row activation
system.mem_ctrls1.bytesPerActivate::total     12846520                       # Bytes accessed per row activation
system.mem_ctrls1.rdPerTurnAround::samples       338825                       # Reads before turning the bus around for writes
system.mem_ctrls1.rdPerTurnAround::mean     36.279041                       # Reads before turning the bus around for writes
system.mem_ctrls1.rdPerTurnAround::stdev   383.356288                       # Reads before turning the bus around for writes
system.mem_ctrls1.rdPerTurnAround::0-4095       338789     99.99%     99.99% # Reads before turning the bus around for writes
system.mem_ctrls1.rdPerTurnAround::4096-8191           13      0.00%     99.99% # Reads before turning the bus around for writes
system.mem_ctrls1.rdPerTurnAround::8192-12287            6      0.00%     99.99% # Reads before turning the bus around for writes
system.mem_ctrls1.rdPerTurnAround::12288-16383            4      0.00%    100.00% # Reads before turning the bus around for writes
system.mem_ctrls1.rdPerTurnAround::16384-20479            3      0.00%    100.00% # Reads before turning the bus around for writes
system.mem_ctrls1.rdPerTurnAround::20480-24575            1      0.00%    100.00% # Reads before turning the bus around for writes
system.mem_ctrls1.rdPerTurnAround::24576-28671            1      0.00%    100.00% # Reads before turning the bus around for writes
system.mem_ctrls1.rdPerTurnAround::28672-32767            1      0.00%    100.00% # Reads before turning the bus around for writes
system.mem_ctrls1.rdPerTurnAround::36864-40959            2      0.00%    100.00% # Reads before turning the bus around for writes
system.mem_ctrls1.rdPerTurnAround::40960-45055            1      0.00%    100.00% # Reads before turning the bus around for writes
system.mem_ctrls1.rdPerTurnAround::61440-65535            1      0.00%    100.00% # Reads before turning the bus around for writes
system.mem_ctrls1.rdPerTurnAround::81920-86015            1      0.00%    100.00% # Reads before turning the bus around for writes
system.mem_ctrls1.rdPerTurnAround::102400-106495            1      0.00%    100.00% # Reads before turning the bus around for writes
system.mem_ctrls1.rdPerTurnAround::126976-131071            1      0.00%    100.00% # Reads before turning the bus around for writes
system.mem_ctrls1.rdPerTurnAround::total       338825                       # Reads before turning the bus around for writes
system.mem_ctrls1.wrPerTurnAround::samples       338825                       # Writes before turning the bus around for reads
system.mem_ctrls1.wrPerTurnAround::mean     17.693573                       # Writes before turning the bus around for reads
system.mem_ctrls1.wrPerTurnAround::gmean    17.670139                       # Writes before turning the bus around for reads
system.mem_ctrls1.wrPerTurnAround::stdev     0.915104                       # Writes before turning the bus around for reads
system.mem_ctrls1.wrPerTurnAround::16-17        75699     22.34%     22.34% # Writes before turning the bus around for reads
system.mem_ctrls1.wrPerTurnAround::18-19       259284     76.52%     98.87% # Writes before turning the bus around for reads
system.mem_ctrls1.wrPerTurnAround::20-21         3711      1.10%     99.96% # Writes before turning the bus around for reads
system.mem_ctrls1.wrPerTurnAround::22-23           54      0.02%     99.98% # Writes before turning the bus around for reads
system.mem_ctrls1.wrPerTurnAround::24-25           23      0.01%     99.98% # Writes before turning the bus around for reads
system.mem_ctrls1.wrPerTurnAround::26-27           15      0.00%     99.99% # Writes before turning the bus around for reads
system.mem_ctrls1.wrPerTurnAround::28-29            3      0.00%     99.99% # Writes before turning the bus around for reads
system.mem_ctrls1.wrPerTurnAround::30-31            9      0.00%     99.99% # Writes before turning the bus around for reads
system.mem_ctrls1.wrPerTurnAround::32-33            5      0.00%     99.99% # Writes before turning the bus around for reads
system.mem_ctrls1.wrPerTurnAround::34-35            7      0.00%    100.00% # Writes before turning the bus around for reads
system.mem_ctrls1.wrPerTurnAround::36-37            3      0.00%    100.00% # Writes before turning the bus around for reads
system.mem_ctrls1.wrPerTurnAround::38-39            1      0.00%    100.00% # Writes before turning the bus around for reads
system.mem_ctrls1.wrPerTurnAround::40-41            2      0.00%    100.00% # Writes before turning the bus around for reads
system.mem_ctrls1.wrPerTurnAround::44-45            2      0.00%    100.00% # Writes before turning the bus around for reads
system.mem_ctrls1.wrPerTurnAround::46-47            1      0.00%    100.00% # Writes before turning the bus around for reads
system.mem_ctrls1.wrPerTurnAround::52-53            2      0.00%    100.00% # Writes before turning the bus around for reads
system.mem_ctrls1.wrPerTurnAround::56-57            1      0.00%    100.00% # Writes before turning the bus around for reads
system.mem_ctrls1.wrPerTurnAround::62-63            2      0.00%    100.00% # Writes before turning the bus around for reads
system.mem_ctrls1.wrPerTurnAround::68-69            1      0.00%    100.00% # Writes before turning the bus around for reads
system.mem_ctrls1.wrPerTurnAround::total       338825                       # Writes before turning the bus around for reads
system.mem_ctrls1.totQLat                343528861820                       # Total ticks spent queuing
system.mem_ctrls1.totMemAccLat           574008905570                       # Total ticks spent from burst creation until serviced by the DRAM
system.mem_ctrls1.totBusLat               61461345000                       # Total ticks spent in databus transfers
system.mem_ctrls1.avgQLat                    27946.74                       # Average queueing delay per DRAM burst
system.mem_ctrls1.avgBusLat                   5000.00                       # Average bus latency per DRAM burst
system.mem_ctrls1.avgMemAccLat               46696.74                       # Average memory access latency per DRAM burst
system.mem_ctrls1.avgRdBW                      175.41                       # Average DRAM read bandwidth in MiByte/s
system.mem_ctrls1.avgWrBW                       85.55                       # Average achieved write bandwidth in MiByte/s
system.mem_ctrls1.avgRdBWSys                   175.41                       # Average system read bandwidth in MiByte/s
system.mem_ctrls1.avgWrBWSys                    85.55                       # Average system write bandwidth in MiByte/s
system.mem_ctrls1.peakBW                     12800.00                       # Theoretical peak bandwidth in MiByte/s
system.mem_ctrls1.busUtil                        2.04                       # Data bus utilization in percentage
system.mem_ctrls1.busUtilRead                    1.37                       # Data bus utilization in percentage for reads
system.mem_ctrls1.busUtilWrite                   0.67                       # Data bus utilization in percentage for writes
system.mem_ctrls1.avgRdQLen                      1.09                       # Average read queue length when enqueuing
system.mem_ctrls1.avgWrQLen                     24.69                       # Average write queue length when enqueuing
system.mem_ctrls1.readRowHits                 4143779                       # Number of row buffer hits during reads
system.mem_ctrls1.writeRowHits                1296986                       # Number of row buffer hits during writes
system.mem_ctrls1.readRowHitRate                33.71                       # Row buffer hit rate for reads
system.mem_ctrls1.writeRowHitRate               21.63                       # Row buffer hit rate for writes
system.mem_ctrls1.avgGap                    245247.78                       # Average gap between requests
system.mem_ctrls1.pageHitRate                   29.75                       # Row buffer hit rate, read and write combined
system.mem_ctrls1_0.actEnergy             45830788920                       # Energy for activate commands per rank (pJ)
system.mem_ctrls1_0.preEnergy             24359626830                       # Energy for precharge commands per rank (pJ)
system.mem_ctrls1_0.readEnergy            43851252480                       # Energy for read commands per rank (pJ)
system.mem_ctrls1_0.writeEnergy           15658627140                       # Energy for write commands per rank (pJ)
system.mem_ctrls1_0.refreshEnergy        353349774960.000061                       # Energy for refresh commands per rank (pJ)
system.mem_ctrls1_0.actBackEnergy        291542236560                       # Energy for active background per rank (pJ)
system.mem_ctrls1_0.preBackEnergy          9342592800                       # Energy for precharge background per rank (pJ)
system.mem_ctrls1_0.actPowerDownEnergy   1497646352940                       # Energy for active power-down per rank (pJ)
system.mem_ctrls1_0.prePowerDownEnergy   170171631840                       # Energy for precharge power-down per rank (pJ)
system.mem_ctrls1_0.selfRefreshEnergy     29014404525                       # Energy for self refresh per rank (pJ)
system.mem_ctrls1_0.totalEnergy          2480807936025                       # Total energy per rank (pJ)
system.mem_ctrls1_0.averagePower           553.135563                       # Core power per rank (mW)
system.mem_ctrls1_0.totalIdleTime        3821234857794                       # Total Idle time Per DRAM Rank
system.mem_ctrls1_0.memoryStateTime::IDLE   6467989426                       # Time in different power states
system.mem_ctrls1_0.memoryStateTime::REF 149545942000                       # Time in different power states
system.mem_ctrls1_0.memoryStateTime::SREF  93756358170                       # Time in different power states
system.mem_ctrls1_0.memoryStateTime::PRE_PDN 443157791455                       # Time in different power states
system.mem_ctrls1_0.memoryStateTime::ACT 507741497726                       # Time in different power states
system.mem_ctrls1_0.memoryStateTime::ACT_PDN 3284321242921                       # Time in different power states
system.mem_ctrls1_1.actEnergy             45893428140                       # Energy for activate commands per rank (pJ)
system.mem_ctrls1_1.preEnergy             24392916570                       # Energy for precharge commands per rank (pJ)
system.mem_ctrls1_1.readEnergy            43915548180                       # Energy for read commands per rank (pJ)
system.mem_ctrls1_1.writeEnergy           15635403360                       # Energy for write commands per rank (pJ)
system.mem_ctrls1_1.refreshEnergy        352992669120.000061                       # Energy for refresh commands per rank (pJ)
system.mem_ctrls1_1.actBackEnergy        291026454390                       # Energy for active background per rank (pJ)
system.mem_ctrls1_1.preBackEnergy          9292725120                       # Energy for precharge background per rank (pJ)
system.mem_ctrls1_1.actPowerDownEnergy   1500239859210                       # Energy for active power-down per rank (pJ)
system.mem_ctrls1_1.prePowerDownEnergy   168311503200                       # Energy for precharge power-down per rank (pJ)
system.mem_ctrls1_1.selfRefreshEnergy     28801642770                       # Energy for self refresh per rank (pJ)
system.mem_ctrls1_1.totalEnergy          2480542724370                       # Total energy per rank (pJ)
system.mem_ctrls1_1.averagePower           553.076428                       # Core power per rank (mW)
system.mem_ctrls1_1.totalIdleTime        3822509789329                       # Total Idle time Per DRAM Rank
system.mem_ctrls1_1.memoryStateTime::IDLE   6290391822                       # Time in different power states
system.mem_ctrls1_1.memoryStateTime::REF 149391594000                       # Time in different power states
system.mem_ctrls1_1.memoryStateTime::SREF  94173946351                       # Time in different power states
system.mem_ctrls1_1.memoryStateTime::PRE_PDN 438318164023                       # Time in different power states
system.mem_ctrls1_1.memoryStateTime::ACT 506798929432                       # Time in different power states
system.mem_ctrls1_1.memoryStateTime::ACT_PDN 3290017796070                       # Time in different power states
system.pwrStateResidencyTicks::UNDEFINED 147961979138772                       # Cumulative time (in ticks) in various power states
system.cpu.branchPred.lookups                       0                       # Number of BP lookups
system.cpu.branchPred.condPredicted                 0                       # Number of conditional branches predicted
system.cpu.branchPred.condIncorrect                 0                       # Number of conditional branches incorrect
system.cpu.branchPred.BTBLookups                    0                       # Number of BTB lookups
system.cpu.branchPred.BTBHits                       0                       # Number of BTB hits
system.cpu.branchPred.BTBCorrect                    0                       # Number of correct BTB predictions (this stat may not work properly.
system.cpu.branchPred.BTBHitPct                   nan                       # BTB Hit Percentage
system.cpu.branchPred.usedRAS                       0                       # Number of times the RAS was used to get a target.
system.cpu.branchPred.RASInCorrect                  0                       # Number of incorrect RAS predictions.
system.cpu.branchPred.indirectLookups               0                       # Number of indirect predictor lookups.
system.cpu.branchPred.indirectHits                  0                       # Number of indirect target hits.
[...]
system.switch_cpus_1.iq.int_inst_queue_wakeup_accesses    699312022                       # Number of integer instruction queue wakeup accesses
system.switch_cpus_1.iq.fp_inst_queue_reads   1223516563                       # Number of floating instruction queue reads
system.switch_cpus_1.iq.fp_inst_queue_writes    704311378                       # Number of floating instruction queue writes
system.switch_cpus_1.iq.fp_inst_queue_wakeup_accesses    550811324                       # Number of floating instruction queue wakeup accesses
system.switch_cpus_1.iq.int_alu_accesses    739284109                       # Number of integer alu accesses
system.switch_cpus_1.iq.fp_alu_accesses     624941925                       # Number of floating point alu accesses
system.switch_cpus_1.iew.lsq.thread0.forwLoads     11819679                       # Number of loads that had data forwarded from stores
system.switch_cpus_1.iew.lsq.thread0.invAddrLoads            0                       # Number of loads ignored due to an invalid address
system.switch_cpus_1.iew.lsq.thread0.squashedLoads    120047743                       # Number of loads squashed
system.switch_cpus_1.iew.lsq.thread0.ignoredResponses          442                       # Number of memory responses ignored because the instruction is squashed
system.switch_cpus_1.iew.lsq.thread0.memOrderViolation         4851                       # Number of memory ordering violations
system.switch_cpus_1.iew.lsq.thread0.squashedStores     22189052                       # Number of stores squashed
system.switch_cpus_1.iew.lsq.thread0.invAddrSwpfs            0                       # Number of software prefetches ignored due to an invalid address
system.switch_cpus_1.iew.lsq.thread0.blockedLoads            0                       # Number of blocked loads due to partial load-store forwarding
system.switch_cpus_1.iew.lsq.thread0.rescheduledLoads            0                       # Number of loads that were rescheduled
system.switch_cpus_1.iew.lsq.thread0.cacheBlocked     47052160                       # Number of times an access to memory failed due to the cache being blocked
system.switch_cpus_1.iew.iewIdleCycles              0                       # Number of cycles IEW is idle
system.switch_cpus_1.iew.iewSquashCycles      3808140                       # Number of cycles IEW is squashing
system.switch_cpus_1.iew.iewBlockCycles     197577974                       # Number of cycles IEW is blocking
system.switch_cpus_1.iew.iewUnblockCycles    674992920                       # Number of cycles IEW is unblocking
system.switch_cpus_1.iew.iewDispatchedInsts   1335772044                       # Number of instructions dispatched to IQ
system.switch_cpus_1.iew.iewDispSquashedInsts        92578                       # Number of squashed instructions skipped by dispatch
system.switch_cpus_1.iew.iewDispLoadInsts    462466297                       # Number of dispatched load instructions
system.switch_cpus_1.iew.iewDispStoreInsts     82215246                       # Number of dispatched store instructions
system.switch_cpus_1.iew.iewDispNonSpecInsts          279                       # Number of dispatched non-speculative instructions
system.switch_cpus_1.iew.iewIQFullEvents      1082872                       # Number of times the IQ has become full, causing a stall
system.switch_cpus_1.iew.iewLSQFullEvents    673662857                       # Number of times the LSQ has become full, causing a stall
system.switch_cpus_1.iew.memOrderViolationEvents         4851                       # Number of memory order violations
system.switch_cpus_1.iew.predictedTakenIncorrect        65061                       # Number of branches that were predicted taken incorrectly
system.switch_cpus_1.iew.predictedNotTakenIncorrect          731                       # Number of branches that were predicted not taken incorrectly
system.switch_cpus_1.iew.branchMispredicts        65792                       # Number of branch mispredicts detected at execute
system.switch_cpus_1.iew.iewExecutedInsts   1311627237                       # Number of executed instructions
system.switch_cpus_1.iew.iewExecLoadInsts    503506594                       # Number of load instructions executed
system.switch_cpus_1.iew.iewExecSquashedInsts       615457                       # Number of squashed instructions skipped in execute
system.switch_cpus_1.iew.exec_swp                   0                       # number of swp insts executed
system.switch_cpus_1.iew.exec_nop             2277769                       # number of nop insts executed
system.switch_cpus_1.iew.exec_refs          573407507                       # number of memory reference insts executed
system.switch_cpus_1.iew.exec_branches       16399487                       # Number of branches executed
system.switch_cpus_1.iew.exec_stores         69900913                       # Number of stores executed
system.switch_cpus_1.iew.exec_rate           0.423517                       # Inst execution rate
system.switch_cpus_1.iew.wb_sent           1261789411                       # cumulative count of insts sent to commit
system.switch_cpus_1.iew.wb_count          1250123346                       # cumulative count of insts written-back
system.switch_cpus_1.iew.wb_producers       811272985                       # num instructions producing a value
system.switch_cpus_1.iew.wb_consumers       883672423                       # num instructions consuming a value
system.switch_cpus_1.iew.wb_rate             0.403657                       # insts written-back per cycle
system.switch_cpus_1.iew.wb_fanout           0.918070                       # average fanout of values written-back
system.switch_cpus_1.commit.commitSquashedInsts    310461366                       # The number of squashed insts skipped by commit
system.switch_cpus_1.commit.commitNonSpecStalls          192                       # The number of times commit has been forced to stall to communicate backwards
system.switch_cpus_1.commit.branchMispredicts        59875                       # The number of times a branch was mispredicted
system.switch_cpus_1.commit.committed_per_cycle::samples   3056153171                       # Number of insts commited each cycle
system.switch_cpus_1.commit.committed_per_cycle::mean     0.327946                       # Number of insts commited each cycle
system.switch_cpus_1.commit.committed_per_cycle::stdev     1.475960                       # Number of insts commited each cycle
system.switch_cpus_1.commit.committed_per_cycle::underflows            0      0.00%      0.00% # Number of insts commited each cycle
system.switch_cpus_1.commit.committed_per_cycle::0   2868861855     93.87%     93.87% # Number of insts commited each cycle
system.switch_cpus_1.commit.committed_per_cycle::1     39198069      1.28%     95.15% # Number of insts commited each cycle
system.switch_cpus_1.commit.committed_per_cycle::2     11756227      0.38%     95.54% # Number of insts commited each cycle
system.switch_cpus_1.commit.committed_per_cycle::3     13083907      0.43%     95.97% # Number of insts commited each cycle
system.switch_cpus_1.commit.committed_per_cycle::4      9804792      0.32%     96.29% # Number of insts commited each cycle
system.switch_cpus_1.commit.committed_per_cycle::5      7889457      0.26%     96.55% # Number of insts commited each cycle
system.switch_cpus_1.commit.committed_per_cycle::6      7601533      0.25%     96.79% # Number of insts commited each cycle
system.switch_cpus_1.commit.committed_per_cycle::7      7641973      0.25%     97.04% # Number of insts commited each cycle
system.switch_cpus_1.commit.committed_per_cycle::8     90315358      2.96%    100.00% # Number of insts commited each cycle
system.switch_cpus_1.commit.committed_per_cycle::overflows            0      0.00%    100.00% # Number of insts commited each cycle
system.switch_cpus_1.commit.committed_per_cycle::min_value            0                       # Number of insts commited each cycle
system.switch_cpus_1.commit.committed_per_cycle::max_value            8                       # Number of insts commited each cycle
system.switch_cpus_1.commit.committed_per_cycle::total   3056153171                       # Number of insts commited each cycle
system.switch_cpus_1.commit.committedInsts   1002254570                       # Number of instructions committed
system.switch_cpus_1.commit.committedOps   1002254570                       # Number of ops (including micro ops) committed
system.switch_cpus_1.commit.swp_count               0                       # Number of s/w prefetches committed
system.switch_cpus_1.commit.refs            402444722                       # Number of memory references committed
system.switch_cpus_1.commit.loads           342418534                       # Number of loads committed
system.switch_cpus_1.commit.membars                96                       # Number of memory barriers committed
system.switch_cpus_1.commit.branches         14073340                       # Number of branches committed
system.switch_cpus_1.commit.fp_insts        517673488                       # Number of committed floating point instructions.
system.switch_cpus_1.commit.int_insts       729436640                       # Number of committed integer instructions.
system.switch_cpus_1.commit.function_calls       663710                       # Number of function calls committed.
system.switch_cpus_1.commit.op_class_0::No_OpClass      2254565      0.22%      0.22% # Class of committed instruction
system.switch_cpus_1.commit.op_class_0::IntAlu    289646777     28.90%     29.12% # Class of committed instruction
system.switch_cpus_1.commit.op_class_0::IntMult     36540313      3.65%     32.77% # Class of committed instruction
system.switch_cpus_1.commit.op_class_0::IntDiv            0      0.00%     32.77% # Class of committed instruction
system.switch_cpus_1.commit.op_class_0::FloatAdd    137644039     13.73%     46.50% # Class of committed instruction
system.switch_cpus_1.commit.op_class_0::FloatCmp      1103609      0.11%     46.61% # Class of committed instruction
system.switch_cpus_1.commit.op_class_0::FloatCvt      1105910      0.11%     46.72% # Class of committed instruction
system.switch_cpus_1.commit.op_class_0::FloatMult    131293357     13.10%     59.82% # Class of committed instruction
system.switch_cpus_1.commit.op_class_0::FloatMultAcc            0      0.00%     59.82% # Class of committed instruction
system.switch_cpus_1.commit.op_class_0::FloatDiv       221182      0.02%     59.85% # Class of committed instruction
system.switch_cpus_1.commit.op_class_0::FloatMisc            0      0.00%     59.85% # Class of committed instruction
system.switch_cpus_1.commit.op_class_0::FloatSqrt            0      0.00%     59.85% # Class of committed instruction
system.switch_cpus_1.commit.op_class_0::SimdAdd            0      0.00%     59.85% # Class of committed instruction
system.switch_cpus_1.commit.op_class_0::SimdAddAcc            0      0.00%     59.85% # Class of committed instruction
system.switch_cpus_1.commit.op_class_0::SimdAlu            0      0.00%     59.85% # Class of committed instruction
system.switch_cpus_1.commit.op_class_0::SimdCmp            0      0.00%     59.85% # Class of committed instruction
system.switch_cpus_1.commit.op_class_0::SimdCvt            0      0.00%     59.85% # Class of committed instruction
system.switch_cpus_1.commit.op_class_0::SimdMisc            0      0.00%     59.85% # Class of committed instruction
system.switch_cpus_1.commit.op_class_0::SimdMult            0      0.00%     59.85% # Class of committed instruction
system.switch_cpus_1.commit.op_class_0::SimdMultAcc            0      0.00%     59.85% # Class of committed instruction
system.switch_cpus_1.commit.op_class_0::SimdShift            0      0.00%     59.85% # Class of committed instruction
system.switch_cpus_1.commit.op_class_0::SimdShiftAcc            0      0.00%     59.85% # Class of committed instruction
system.switch_cpus_1.commit.op_class_0::SimdSqrt            0      0.00%     59.85% # Class of committed instruction
system.switch_cpus_1.commit.op_class_0::SimdFloatAdd            0      0.00%     59.85% # Class of committed instruction
system.switch_cpus_1.commit.op_class_0::SimdFloatAlu            0      0.00%     59.85% # Class of committed instruction
system.switch_cpus_1.commit.op_class_0::SimdFloatCmp            0      0.00%     59.85% # Class of committed instruction
system.switch_cpus_1.commit.op_class_0::SimdFloatCvt            0      0.00%     59.85% # Class of committed instruction
system.switch_cpus_1.commit.op_class_0::SimdFloatDiv            0      0.00%     59.85% # Class of committed instruction
system.switch_cpus_1.commit.op_class_0::SimdFloatMisc            0      0.00%     59.85% # Class of committed instruction
system.switch_cpus_1.commit.op_class_0::SimdFloatMult            0      0.00%     59.85% # Class of committed instruction
system.switch_cpus_1.commit.op_class_0::SimdFloatMultAcc            0      0.00%     59.85% # Class of committed instruction
system.switch_cpus_1.commit.op_class_0::SimdFloatSqrt            0      0.00%     59.85% # Class of committed instruction
system.switch_cpus_1.commit.op_class_0::MemRead    140938752     14.06%     73.91% # Class of committed instruction
system.switch_cpus_1.commit.op_class_0::MemWrite     15200675      1.52%     75.42% # Class of committed instruction
system.switch_cpus_1.commit.op_class_0::FloatMemRead    201479878     20.10%     95.53% # Class of committed instruction
system.switch_cpus_1.commit.op_class_0::FloatMemWrite     44825513      4.47%    100.00% # Class of committed instruction
system.switch_cpus_1.commit.op_class_0::IprAccess            0      0.00%    100.00% # Class of committed instruction
system.switch_cpus_1.commit.op_class_0::InstPrefetch            0      0.00%    100.00% # Class of committed instruction
system.switch_cpus_1.commit.op_class_0::total   1002254570                       # Class of committed instruction
system.switch_cpus_1.commit.bw_lim_events     90315358                       # number cycles where commit BW limit reached
system.switch_cpus_1.rob.rob_reads         4229876523                       # The number of ROB reads
system.switch_cpus_1.rob.rob_writes        2665919557                       # The number of ROB writes
system.switch_cpus_1.timesIdled                  1621                       # Number of times that the entire CPU went into an idle state and unscheduled itself
system.switch_cpus_1.idleCycles                351089                       # Total number of cycles that the CPU has spent unscheduled due to idling
system.switch_cpus_1.committedInsts        1000000007                       # Number of Instructions Simulated
system.switch_cpus_1.committedOps          1000000007                       # Number of Ops (including micro ops) Simulated
system.switch_cpus_1.cpi                     3.096992                       # CPI: Cycles Per Instruction
system.switch_cpus_1.cpi_total               3.096992                       # CPI: Total CPI of All Threads
system.switch_cpus_1.ipc                     0.322894                       # IPC: Instructions Per Cycle
system.switch_cpus_1.ipc_total               0.322894                       # IPC: Total IPC of All Threads
system.switch_cpus_1.int_regfile_reads     1296458640                       # number of integer regfile reads
system.switch_cpus_1.int_regfile_writes     662089062                       # number of integer regfile writes
system.switch_cpus_1.fp_regfile_reads       606356557                       # number of floating regfile reads
system.switch_cpus_1.fp_regfile_writes      502725268                       # number of floating regfile writes
system.switch_cpus_1.misc_regfile_reads       6857385                       # number of misc regfile reads
system.switch_cpus_1.misc_regfile_writes          193                       # number of misc regfile writes
system.tol3bus.snoop_filter.tot_requests     60074515                       # Total number of requests made to the snoop filter.
system.tol3bus.snoop_filter.hit_single_requests     30034969                       # Number of requests hitting in the snoop filter with a single holder of the requested data.
system.tol3bus.snoop_filter.hit_multi_requests            0                       # Number of requests hitting in the snoop filter with multiple (>1) holders of the requested data.
system.tol3bus.snoop_filter.tot_snoops           9364                       # Total number of snoops made to the snoop filter.
system.tol3bus.snoop_filter.hit_single_snoops         9364                       # Number of snoops hitting in the snoop filter with a single holder of the requested data.
system.tol3bus.snoop_filter.hit_multi_snoops            0                       # Number of snoops hitting in the snoop filter with multiple (>1) holders of the requested data.
system.tol3bus.pwrStateResidencyTicks::UNDEFINED 147961979138772                       # Cumulative time (in ticks) in various power states
system.tol3bus.trans_dist::ReadResp          29753944                       # Transaction distribution
system.tol3bus.trans_dist::WritebackDirty     24650580                       # Transaction distribution
system.tol3bus.trans_dist::CleanEvict        29908788                       # Transaction distribution
system.tol3bus.trans_dist::UpgradeReq              10                       # Transaction distribution
system.tol3bus.trans_dist::UpgradeResp             10                       # Transaction distribution
system.tol3bus.trans_dist::ReadExReq           285602                       # Transaction distribution
system.tol3bus.trans_dist::ReadExResp          285602                       # Transaction distribution
system.tol3bus.trans_dist::ReadSharedReq     29753944                       # Transaction distribution
system.tol3bus.pkt_count_system.cpu.l2.mem_side::system.l3.cpu_side     90114071                       # Packet count per connected master and slave (bytes)
system.tol3bus.pkt_size_system.cpu.l2.mem_side::system.l3.cpu_side   2732798848                       # Cumulative packet size per connected master and slave (bytes)
system.tol3bus.snoops                        24524409                       # Total snoops (count)
system.tol3bus.snoopTraffic                 767369216                       # Total snoop traffic (bytes)
system.tol3bus.snoop_fanout::samples         54563965                       # Request fanout histogram
system.tol3bus.snoop_fanout::mean            0.000172                       # Request fanout histogram
system.tol3bus.snoop_fanout::stdev           0.013099                       # Request fanout histogram
system.tol3bus.snoop_fanout::underflows             0      0.00%      0.00% # Request fanout histogram
system.tol3bus.snoop_fanout::0               54554601     99.98%     99.98% # Request fanout histogram
system.tol3bus.snoop_fanout::1                   9364      0.02%    100.00% # Request fanout histogram
system.tol3bus.snoop_fanout::overflows              0      0.00%    100.00% # Request fanout histogram
system.tol3bus.snoop_fanout::min_value              0                       # Request fanout histogram
system.tol3bus.snoop_fanout::max_value              1                       # Request fanout histogram
system.tol3bus.snoop_fanout::total           54563965                       # Request fanout histogram
system.tol3bus.reqLayer0.occupancy        24220738683                       # Layer occupancy (ticks)
system.tol3bus.reqLayer0.utilization              0.5                       # Layer utilization (%)
system.tol3bus.respLayer0.occupancy       20006340966                       # Layer occupancy (ticks)
system.tol3bus.respLayer0.utilization             0.4                       # Layer utilization (%)

---------- End Simulation Statistics   ----------
