
---------- Begin Simulation Statistics ----------
sim_seconds                                  1.026805                       # Number of seconds simulated
sim_ticks                                1026805499001                       # Number of ticks simulated
final_tick                               111353024253258                       # Number of ticks from beginning of simulation (restored from checkpoints and never reset)
sim_freq                                 1000000000000                       # Frequency of simulated ticks
host_inst_rate                                 699398                       # Simulator instruction rate (inst/s)
host_op_rate                                   699398                       # Simulator op (including micro ops) rate (op/s)
host_tick_rate                              598455145                       # Simulator tick rate (ticks/s)
host_mem_usage                                2384916                       # Number of bytes of host memory used
host_seconds                                  1715.76                       # Real time elapsed on the host
sim_insts                                  1200000011                       # Number of instructions simulated
sim_ops                                    1200000011                       # Number of ops (including micro ops) simulated
system.voltage_domain.voltage                       1                       # Voltage in Volts
system.clk_domain.clock                          1000                       # Clock period in ticks
system.mem_ctrls0.pwrStateResidencyTicks::UNDEFINED 111353024253258                       # Cumulative time (in ticks) in various power states
system.mem_ctrls0.bytes_read::cpu.inst            128                       # Number of bytes read from this memory
system.mem_ctrls0.bytes_read::cpu.data            192                       # Number of bytes read from this memory
system.mem_ctrls0.bytes_read::switch_cpus.inst        16704                       # Number of bytes read from this memory
system.mem_ctrls0.bytes_read::switch_cpus.data      2451264                       # Number of bytes read from this memory
system.mem_ctrls0.bytes_read::switch_cpus_1.inst         5184                       # Number of bytes read from this memory
system.mem_ctrls0.bytes_read::switch_cpus_1.data      2022656                       # Number of bytes read from this memory
system.mem_ctrls0.bytes_read::total           4496128                       # Number of bytes read from this memory
system.mem_ctrls0.bytes_inst_read::cpu.inst          128                       # Number of instructions bytes read from this memory
system.mem_ctrls0.bytes_inst_read::switch_cpus.inst        16704                       # Number of instructions bytes read from this memory
system.mem_ctrls0.bytes_inst_read::switch_cpus_1.inst         5184                       # Number of instructions bytes read from this memory
system.mem_ctrls0.bytes_inst_read::total        22016                       # Number of instructions bytes read from this memory
system.mem_ctrls0.bytes_written::writebacks      2344192                       # Number of bytes written to this memory
system.mem_ctrls0.bytes_written::total        2344192                       # Number of bytes written to this memory
system.mem_ctrls0.num_reads::cpu.inst               2                       # Number of read requests responded to by this memory
system.mem_ctrls0.num_reads::cpu.data               3                       # Number of read requests responded to by this memory
system.mem_ctrls0.num_reads::switch_cpus.inst          261                       # Number of read requests responded to by this memory
system.mem_ctrls0.num_reads::switch_cpus.data        38301                       # Number of read requests responded to by this memory
system.mem_ctrls0.num_reads::switch_cpus_1.inst           81                       # Number of read requests responded to by this memory
system.mem_ctrls0.num_reads::switch_cpus_1.data        31604                       # Number of read requests responded to by this memory
system.mem_ctrls0.num_reads::total              70252                       # Number of read requests responded to by this memory
system.mem_ctrls0.num_writes::writebacks        36628                       # Number of write requests responded to by this memory
system.mem_ctrls0.num_writes::total             36628                       # Number of write requests responded to by this memory
system.mem_ctrls0.bw_read::cpu.inst               125                       # Total read bandwidth from this memory (bytes/s)
system.mem_ctrls0.bw_read::cpu.data               187                       # Total read bandwidth from this memory (bytes/s)
system.mem_ctrls0.bw_read::switch_cpus.inst        16268                       # Total read bandwidth from this memory (bytes/s)
system.mem_ctrls0.bw_read::switch_cpus.data      2387272                       # Total read bandwidth from this memory (bytes/s)
system.mem_ctrls0.bw_read::switch_cpus_1.inst         5049                       # Total read bandwidth from this memory (bytes/s)
system.mem_ctrls0.bw_read::switch_cpus_1.data      1969853                       # Total read bandwidth from this memory (bytes/s)
system.mem_ctrls0.bw_read::total              4378753                       # Total read bandwidth from this memory (bytes/s)
system.mem_ctrls0.bw_inst_read::cpu.inst          125                       # Instruction read bandwidth from this memory (bytes/s)
system.mem_ctrls0.bw_inst_read::switch_cpus.inst        16268                       # Instruction read bandwidth from this memory (bytes/s)
system.mem_ctrls0.bw_inst_read::switch_cpus_1.inst         5049                       # Instruction read bandwidth from this memory (bytes/s)
system.mem_ctrls0.bw_inst_read::total           21441                       # Instruction read bandwidth from this memory (bytes/s)
system.mem_ctrls0.bw_write::writebacks        2282995                       # Write bandwidth from this memory (bytes/s)
system.mem_ctrls0.bw_write::total             2282995                       # Write bandwidth from this memory (bytes/s)
system.mem_ctrls0.bw_total::writebacks        2282995                       # Total bandwidth to/from this memory (bytes/s)
system.mem_ctrls0.bw_total::cpu.inst              125                       # Total bandwidth to/from this memory (bytes/s)
system.mem_ctrls0.bw_total::cpu.data              187                       # Total bandwidth to/from this memory (bytes/s)
system.mem_ctrls0.bw_total::switch_cpus.inst        16268                       # Total bandwidth to/from this memory (bytes/s)
system.mem_ctrls0.bw_total::switch_cpus.data      2387272                       # Total bandwidth to/from this memory (bytes/s)
system.mem_ctrls0.bw_total::switch_cpus_1.inst         5049                       # Total bandwidth to/from this memory (bytes/s)
system.mem_ctrls0.bw_total::switch_cpus_1.data      1969853                       # Total bandwidth to/from this memory (bytes/s)
system.mem_ctrls0.bw_total::total             6661749                       # Total bandwidth to/from this memory (bytes/s)
system.mem_ctrls0.readReqs                      70252                       # Number of read requests accepted
system.mem_ctrls0.writeReqs                     36628                       # Number of write requests accepted
system.mem_ctrls0.readBursts                    70252                       # Number of DRAM read bursts, including those serviced by the write queue
system.mem_ctrls0.writeBursts                   36628                       # Number of DRAM write bursts, including those merged in the write queue
system.mem_ctrls0.bytesReadDRAM               4492416                       # Total number of bytes read from DRAM
system.mem_ctrls0.bytesReadWrQ                   3712                       # Total number of bytes read from write queue
system.mem_ctrls0.bytesWritten                2342400                       # Total number of bytes written to DRAM
system.mem_ctrls0.bytesReadSys                4496128                       # Total read bytes from the system interface side
system.mem_ctrls0.bytesWrittenSys             2344192                       # Total written bytes from the system interface side
system.mem_ctrls0.servicedByWrQ                    58                       # Number of DRAM read bursts serviced by the write queue
system.mem_ctrls0.mergedWrBursts                    0                       # Number of DRAM write bursts merged with an existing one
system.mem_ctrls0.neitherReadNorWriteReqs            0                       # Number of requests that are neither read nor write
system.mem_ctrls0.perBankRdBursts::0             4421                       # Per bank write bursts
system.mem_ctrls0.perBankRdBursts::1             3695                       # Per bank write bursts
system.mem_ctrls0.perBankRdBursts::2             4029                       # Per bank write bursts
system.mem_ctrls0.perBankRdBursts::3             5026                       # Per bank write bursts
system.mem_ctrls0.perBankRdBursts::4             4917                       # Per bank write bursts
system.mem_ctrls0.perBankRdBursts::5             4379                       # Per bank write bursts
system.mem_ctrls0.perBankRdBursts::6             4022                       # Per bank write bursts
system.mem_ctrls0.perBankRdBursts::7             4603                       # Per bank write bursts
system.mem_ctrls0.perBankRdBursts::8             4439                       # Per bank write bursts
system.mem_ctrls0.perBankRdBursts::9             3860                       # Per bank write bursts
system.mem_ctrls0.perBankRdBursts::10            4420                       # Per bank write bursts
system.mem_ctrls0.perBankRdBursts::11            4737                       # Per bank write bursts
system.mem_ctrls0.perBankRdBursts::12            4961                       # Per bank write bursts
system.mem_ctrls0.perBankRdBursts::13            4262                       # Per bank write bursts
system.mem_ctrls0.perBankRdBursts::14            4049                       # Per bank write bursts
system.mem_ctrls0.perBankRdBursts::15            4374                       # Per bank write bursts
system.mem_ctrls0.perBankWrBursts::0             2336                       # Per bank write bursts
system.mem_ctrls0.perBankWrBursts::1             1543                       # Per bank write bursts
system.mem_ctrls0.perBankWrBursts::2             2015                       # Per bank write bursts
system.mem_ctrls0.perBankWrBursts::3             2803                       # Per bank write bursts
system.mem_ctrls0.perBankWrBursts::4             2871                       # Per bank write bursts
system.mem_ctrls0.perBankWrBursts::5             2362                       # Per bank write bursts
system.mem_ctrls0.perBankWrBursts::6             1848                       # Per bank write bursts
system.mem_ctrls0.perBankWrBursts::7             2462                       # Per bank write bursts
system.mem_ctrls0.perBankWrBursts::8             2294                       # Per bank write bursts
system.mem_ctrls0.perBankWrBursts::9             1793                       # Per bank write bursts
system.mem_ctrls0.perBankWrBursts::10            2266                       # Per bank write bursts
system.mem_ctrls0.perBankWrBursts::11            2742                       # Per bank write bursts
system.mem_ctrls0.perBankWrBursts::12            2846                       # Per bank write bursts
system.mem_ctrls0.perBankWrBursts::13            2099                       # Per bank write bursts
system.mem_ctrls0.perBankWrBursts::14            1976                       # Per bank write bursts
system.mem_ctrls0.perBankWrBursts::15            2344                       # Per bank write bursts
system.mem_ctrls0.numRdRetry                        0                       # Number of times read queue was full causing retry
system.mem_ctrls0.numWrRetry                        0                       # Number of times write queue was full causing retry
system.mem_ctrls0.totGap                 1026799398108                       # Total gap between requests
system.mem_ctrls0.readPktSize::0                    0                       # Read request sizes (log2)
system.mem_ctrls0.readPktSize::1                    0                       # Read request sizes (log2)
system.mem_ctrls0.readPktSize::2                    0                       # Read request sizes (log2)
system.mem_ctrls0.readPktSize::3                    0                       # Read request sizes (log2)
system.mem_ctrls0.readPktSize::4                    0                       # Read request sizes (log2)
system.mem_ctrls0.readPktSize::5                    0                       # Read request sizes (log2)
system.mem_ctrls0.readPktSize::6                70252                       # Read request sizes (log2)
system.mem_ctrls0.writePktSize::0                   0                       # Write request sizes (log2)
system.mem_ctrls0.writePktSize::1                   0                       # Write request sizes (log2)
system.mem_ctrls0.writePktSize::2                   0                       # Write request sizes (log2)
system.mem_ctrls0.writePktSize::3                   0                       # Write request sizes (log2)
system.mem_ctrls0.writePktSize::4                   0                       # Write request sizes (log2)
system.mem_ctrls0.writePktSize::5                   0                       # Write request sizes (log2)
system.mem_ctrls0.writePktSize::6               36628                       # Write request sizes (log2)
system.mem_ctrls0.rdQLenPdf::0                  65355                       # What read queue length does an incoming req see
system.mem_ctrls0.rdQLenPdf::1                   4643                       # What read queue length does an incoming req see
system.mem_ctrls0.rdQLenPdf::2                    195                       # What read queue length does an incoming req see
system.mem_ctrls0.rdQLenPdf::3                      1                       # What read queue length does an incoming req see
system.mem_ctrls0.rdQLenPdf::4                      0                       # What read queue length does an incoming req see
system.mem_ctrls0.rdQLenPdf::5                      0                       # What read queue length does an incoming req see
system.mem_ctrls0.rdQLenPdf::6                      0                       # What read queue length does an incoming req see
system.mem_ctrls0.rdQLenPdf::7                      0                       # What read queue length does an incoming req see
system.mem_ctrls0.rdQLenPdf::8                      0                       # What read queue length does an incoming req see
system.mem_ctrls0.rdQLenPdf::9                      0                       # What read queue length does an incoming req see
system.mem_ctrls0.rdQLenPdf::10                     0                       # What read queue length does an incoming req see
system.mem_ctrls0.rdQLenPdf::11                     0                       # What read queue length does an incoming req see
system.mem_ctrls0.rdQLenPdf::12                     0                       # What read queue length does an incoming req see
system.mem_ctrls0.rdQLenPdf::13                     0                       # What read queue length does an incoming req see
system.mem_ctrls0.rdQLenPdf::14                     0                       # What read queue length does an incoming req see
system.mem_ctrls0.rdQLenPdf::15                     0                       # What read queue length does an incoming req see
system.mem_ctrls0.rdQLenPdf::16                     0                       # What read queue length does an incoming req see
system.mem_ctrls0.rdQLenPdf::17                     0                       # What read queue length does an incoming req see
system.mem_ctrls0.rdQLenPdf::18                     0                       # What read queue length does an incoming req see
system.mem_ctrls0.rdQLenPdf::19                     0                       # What read queue length does an incoming req see
system.mem_ctrls0.rdQLenPdf::20                     0                       # What read queue length does an incoming req see
system.mem_ctrls0.rdQLenPdf::21                     0                       # What read queue length does an incoming req see
system.mem_ctrls0.rdQLenPdf::22                     0                       # What read queue length does an incoming req see
system.mem_ctrls0.rdQLenPdf::23                     0                       # What read queue length does an incoming req see
system.mem_ctrls0.rdQLenPdf::24                     0                       # What read queue length does an incoming req see
system.mem_ctrls0.rdQLenPdf::25                     0                       # What read queue length does an incoming req see
system.mem_ctrls0.rdQLenPdf::26                     0                       # What read queue length does an incoming req see
system.mem_ctrls0.rdQLenPdf::27                     0                       # What read queue length does an incoming req see
system.mem_ctrls0.rdQLenPdf::28                     0                       # What read queue length does an incoming req see
system.mem_ctrls0.rdQLenPdf::29                     0                       # What read queue length does an incoming req see
system.mem_ctrls0.rdQLenPdf::30                     0                       # What read queue length does an incoming req see
system.mem_ctrls0.rdQLenPdf::31                     0                       # What read queue length does an incoming req see
system.mem_ctrls0.wrQLenPdf::0                      2                       # What write queue length does an incoming req see
system.mem_ctrls0.wrQLenPdf::1                      2                       # What write queue length does an incoming req see
system.mem_ctrls0.wrQLenPdf::2                      2                       # What write queue length does an incoming req see
system.mem_ctrls0.wrQLenPdf::3                      2                       # What write queue length does an incoming req see
system.mem_ctrls0.wrQLenPdf::4                      2                       # What write queue length does an incoming req see
system.mem_ctrls0.wrQLenPdf::5                      2                       # What write queue length does an incoming req see
system.mem_ctrls0.wrQLenPdf::6                      2                       # What write queue length does an incoming req see
system.mem_ctrls0.wrQLenPdf::7                      2                       # What write queue length does an incoming req see
system.mem_ctrls0.wrQLenPdf::8                      2                       # What write queue length does an incoming req see
system.mem_ctrls0.wrQLenPdf::9                      2                       # What write queue length does an incoming req see
system.mem_ctrls0.wrQLenPdf::10                     2                       # What write queue length does an incoming req see
system.mem_ctrls0.wrQLenPdf::11                     2                       # What write queue length does an incoming req see
system.mem_ctrls0.wrQLenPdf::12                     2                       # What write queue length does an incoming req see
system.mem_ctrls0.wrQLenPdf::13                     2                       # What write queue length does an incoming req see
system.mem_ctrls0.wrQLenPdf::14                     2                       # What write queue length does an incoming req see
system.mem_ctrls0.wrQLenPdf::15                  1730                       # What write queue length does an incoming req see
system.mem_ctrls0.wrQLenPdf::16                  1811                       # What write queue length does an incoming req see
system.mem_ctrls0.wrQLenPdf::17                  2008                       # What write queue length does an incoming req see
system.mem_ctrls0.wrQLenPdf::18                  2075                       # What write queue length does an incoming req see
system.mem_ctrls0.wrQLenPdf::19                  2072                       # What write queue length does an incoming req see
system.mem_ctrls0.wrQLenPdf::20                  2068                       # What write queue length does an incoming req see
system.mem_ctrls0.wrQLenPdf::21                  2074                       # What write queue length does an incoming req see
system.mem_ctrls0.wrQLenPdf::22                  2077                       # What write queue length does an incoming req see
system.mem_ctrls0.wrQLenPdf::23                  2070                       # What write queue length does an incoming req see
system.mem_ctrls0.wrQLenPdf::24                  2090                       # What write queue length does an incoming req see
system.mem_ctrls0.wrQLenPdf::25                  2103                       # What write queue length does an incoming req see
system.mem_ctrls0.wrQLenPdf::26                  2070                       # What write queue length does an incoming req see
system.mem_ctrls0.wrQLenPdf::27                  2057                       # What write queue length does an incoming req see
system.mem_ctrls0.wrQLenPdf::28                  2051                       # What write queue length does an incoming req see
system.mem_ctrls0.wrQLenPdf::29                  2060                       # What write queue length does an incoming req see
system.mem_ctrls0.wrQLenPdf::30                  2100                       # What write queue length does an incoming req see
system.mem_ctrls0.wrQLenPdf::31                  2036                       # What write queue length does an incoming req see
system.mem_ctrls0.wrQLenPdf::32                  2034                       # What write queue length does an incoming req see
system.mem_ctrls0.wrQLenPdf::33                    11                       # What write queue length does an incoming req see
system.mem_ctrls0.wrQLenPdf::34                     1                       # What write queue length does an incoming req see
system.mem_ctrls0.wrQLenPdf::35                     0                       # What write queue length does an incoming req see
system.mem_ctrls0.wrQLenPdf::36                     0                       # What write queue length does an incoming req see
system.mem_ctrls0.wrQLenPdf::37                     0                       # What write queue length does an incoming req see
system.mem_ctrls0.wrQLenPdf::38                     0                       # What write queue length does an incoming req see
system.mem_ctrls0.wrQLenPdf::39                     0                       # What write queue length does an incoming req see
system.mem_ctrls0.wrQLenPdf::40                     0                       # What write queue length does an incoming req see
system.mem_ctrls0.wrQLenPdf::41                     0                       # What write queue length does an incoming req see
system.mem_ctrls0.wrQLenPdf::42                     0                       # What write queue length does an incoming req see
system.mem_ctrls0.wrQLenPdf::43                     0                       # What write queue length does an incoming req see
system.mem_ctrls0.wrQLenPdf::44                     0                       # What write queue length does an incoming req see
system.mem_ctrls0.wrQLenPdf::45                     0                       # What write queue length does an incoming req see
system.mem_ctrls0.wrQLenPdf::46                     0                       # What write queue length does an incoming req see
system.mem_ctrls0.wrQLenPdf::47                     0                       # What write queue length does an incoming req see
system.mem_ctrls0.wrQLenPdf::48                     0                       # What write queue length does an incoming req see
system.mem_ctrls0.wrQLenPdf::49                     0                       # What write queue length does an incoming req see
system.mem_ctrls0.wrQLenPdf::50                     0                       # What write queue length does an incoming req see
system.mem_ctrls0.wrQLenPdf::51                     0                       # What write queue length does an incoming req see
system.mem_ctrls0.wrQLenPdf::52                     0                       # What write queue length does an incoming req see
system.mem_ctrls0.wrQLenPdf::53                     0                       # What write queue length does an incoming req see
system.mem_ctrls0.wrQLenPdf::54                     0                       # What write queue length does an incoming req see
system.mem_ctrls0.wrQLenPdf::55                     0                       # What write queue length does an incoming req see
system.mem_ctrls0.wrQLenPdf::56                     0                       # What write queue length does an incoming req see
system.mem_ctrls0.wrQLenPdf::57                     0                       # What write queue length does an incoming req see
system.mem_ctrls0.wrQLenPdf::58                     0                       # What write queue length does an incoming req see
system.mem_ctrls0.wrQLenPdf::59                     0                       # What write queue length does an incoming req see
system.mem_ctrls0.wrQLenPdf::60                     0                       # What write queue length does an incoming req see
system.mem_ctrls0.wrQLenPdf::61                     0                       # What write queue length does an incoming req see
system.mem_ctrls0.wrQLenPdf::62                     0                       # What write queue length does an incoming req see
system.mem_ctrls0.wrQLenPdf::63                     0                       # What write queue length does an incoming req see
system.mem_ctrls0.bytesPerActivate::samples        50790                       # Bytes accessed per row activation
system.mem_ctrls0.bytesPerActivate::mean   134.570112                       # Bytes accessed per row activation
system.mem_ctrls0.bytesPerActivate::gmean   110.165220                       # Bytes accessed per row activation
system.mem_ctrls0.bytesPerActivate::stdev   110.330479                       # Bytes accessed per row activation
system.mem_ctrls0.bytesPerActivate::0-127        22611     44.52%     44.52% # Bytes accessed per row activation
system.mem_ctrls0.bytesPerActivate::128-255        23763     46.79%     91.31% # Bytes accessed per row activation
system.mem_ctrls0.bytesPerActivate::256-383         1958      3.86%     95.16% # Bytes accessed per row activation
system.mem_ctrls0.bytesPerActivate::384-511         1095      2.16%     97.32% # Bytes accessed per row activation
system.mem_ctrls0.bytesPerActivate::512-639          729      1.44%     98.75% # Bytes accessed per row activation
system.mem_ctrls0.bytesPerActivate::640-767          413      0.81%     99.56% # Bytes accessed per row activation
system.mem_ctrls0.bytesPerActivate::768-895          149      0.29%     99.86% # Bytes accessed per row activation
system.mem_ctrls0.bytesPerActivate::896-1023           53      0.10%     99.96% # Bytes accessed per row activation
system.mem_ctrls0.bytesPerActivate::1024-1151           19      0.04%    100.00% # Bytes accessed per row activation
system.mem_ctrls0.bytesPerActivate::total        50790                       # Bytes accessed per row activation
system.mem_ctrls0.rdPerTurnAround::samples         2035                       # Reads before turning the bus around for writes
system.mem_ctrls0.rdPerTurnAround::mean     34.485995                       # Reads before turning the bus around for writes
system.mem_ctrls0.rdPerTurnAround::stdev   708.529046                       # Reads before turning the bus around for writes
system.mem_ctrls0.rdPerTurnAround::0-1023         2034     99.95%     99.95% # Reads before turning the bus around for writes
system.mem_ctrls0.rdPerTurnAround::31744-32767            1      0.05%    100.00% # Reads before turning the bus around for writes
system.mem_ctrls0.rdPerTurnAround::total         2035                       # Reads before turning the bus around for writes
system.mem_ctrls0.wrPerTurnAround::samples         2035                       # Writes before turning the bus around for reads
system.mem_ctrls0.wrPerTurnAround::mean     17.985258                       # Writes before turning the bus around for reads
system.mem_ctrls0.wrPerTurnAround::gmean    17.960533                       # Writes before turning the bus around for reads
system.mem_ctrls0.wrPerTurnAround::stdev     0.939036                       # Writes before turning the bus around for reads
system.mem_ctrls0.wrPerTurnAround::16             237     11.65%     11.65% # Writes before turning the bus around for reads
system.mem_ctrls0.wrPerTurnAround::17              59      2.90%     14.55% # Writes before turning the bus around for reads
system.mem_ctrls0.wrPerTurnAround::18            1335     65.60%     80.15% # Writes before turning the bus around for reads
system.mem_ctrls0.wrPerTurnAround::19             330     16.22%     96.36% # Writes before turning the bus around for reads
system.mem_ctrls0.wrPerTurnAround::20              59      2.90%     99.26% # Writes before turning the bus around for reads
system.mem_ctrls0.wrPerTurnAround::21              10      0.49%     99.75% # Writes before turning the bus around for reads
system.mem_ctrls0.wrPerTurnAround::22               2      0.10%     99.85% # Writes before turning the bus around for reads
system.mem_ctrls0.wrPerTurnAround::23               2      0.10%     99.95% # Writes before turning the bus around for reads
system.mem_ctrls0.wrPerTurnAround::25               1      0.05%    100.00% # Writes before turning the bus around for reads
system.mem_ctrls0.wrPerTurnAround::total         2035                       # Writes before turning the bus around for reads
system.mem_ctrls0.totQLat                  1345005654                       # Total ticks spent queuing
system.mem_ctrls0.totMemAccLat             2661143154                       # Total ticks spent from burst creation until serviced by the DRAM
system.mem_ctrls0.totBusLat                 350970000                       # Total ticks spent in databus transfers
system.mem_ctrls0.avgQLat                    19161.26                       # Average queueing delay per DRAM burst
system.mem_ctrls0.avgBusLat                   5000.00                       # Average bus latency per DRAM burst
system.mem_ctrls0.avgMemAccLat               37911.26                       # Average memory access latency per DRAM burst
system.mem_ctrls0.avgRdBW                        4.38                       # Average DRAM read bandwidth in MiByte/s
system.mem_ctrls0.avgWrBW                        2.28                       # Average achieved write bandwidth in MiByte/s
system.mem_ctrls0.avgRdBWSys                     4.38                       # Average system read bandwidth in MiByte/s
system.mem_ctrls0.avgWrBWSys                     2.28                       # Average system write bandwidth in MiByte/s
system.mem_ctrls0.peakBW                     12800.00                       # Theoretical peak bandwidth in MiByte/s
system.mem_ctrls0.busUtil                        0.05                       # Data bus utilization in percentage
system.mem_ctrls0.busUtilRead                    0.03                       # Data bus utilization in percentage for reads
system.mem_ctrls0.busUtilWrite                   0.02                       # Data bus utilization in percentage for writes
system.mem_ctrls0.avgRdQLen                      1.00                       # Average read queue length when enqueuing
system.mem_ctrls0.avgWrQLen                      0.82                       # Average write queue length when enqueuing
system.mem_ctrls0.readRowHits                   45283                       # Number of row buffer hits during reads
system.mem_ctrls0.writeRowHits                  10721                       # Number of row buffer hits during writes
system.mem_ctrls0.readRowHitRate                64.51                       # Row buffer hit rate for reads
system.mem_ctrls0.writeRowHitRate               29.27                       # Row buffer hit rate for writes
system.mem_ctrls0.avgGap                   9607030.30                       # Average gap between requests
system.mem_ctrls0.pageHitRate                   52.43                       # Row buffer hit rate, read and write combined
system.mem_ctrls0_0.actEnergy               181341720                       # Energy for activate commands per rank (pJ)
system.mem_ctrls0_0.preEnergy                96385410                       # Energy for precharge commands per rank (pJ)
system.mem_ctrls0_0.readEnergy              250556880                       # Energy for read commands per rank (pJ)
system.mem_ctrls0_0.writeEnergy              95212800                       # Energy for write commands per rank (pJ)
system.mem_ctrls0_0.refreshEnergy        4830455760.000001                       # Energy for refresh commands per rank (pJ)
system.mem_ctrls0_0.actBackEnergy          2372890050                       # Energy for active background per rank (pJ)
system.mem_ctrls0_0.preBackEnergy           131168640                       # Energy for precharge background per rank (pJ)
system.mem_ctrls0_0.actPowerDownEnergy    18737243490                       # Energy for active power-down per rank (pJ)
system.mem_ctrls0_0.prePowerDownEnergy     4754109600                       # Energy for precharge power-down per rank (pJ)
system.mem_ctrls0_0.selfRefreshEnergy    232435300935                       # Energy for self refresh per rank (pJ)
system.mem_ctrls0_0.totalEnergy          263885157105                       # Total energy per rank (pJ)
system.mem_ctrls0_0.averagePower           256.996244                       # Core power per rank (mW)
system.mem_ctrls0_0.totalIdleTime        1021222685540                       # Total Idle time Per DRAM Rank
system.mem_ctrls0_0.memoryStateTime::IDLE    129312846                       # Time in different power states
system.mem_ctrls0_0.memoryStateTime::REF   2045152000                       # Time in different power states
system.mem_ctrls0_0.memoryStateTime::SREF 967788169251                       # Time in different power states
system.mem_ctrls0_0.memoryStateTime::PRE_PDN  12380686513                       # Time in different power states
system.mem_ctrls0_0.memoryStateTime::ACT   3371367591                       # Time in different power states
system.mem_ctrls0_0.memoryStateTime::ACT_PDN  41090810800                       # Time in different power states
system.mem_ctrls0_1.actEnergy               181298880                       # Energy for activate commands per rank (pJ)
system.mem_ctrls0_1.preEnergy                96362640                       # Energy for precharge commands per rank (pJ)
system.mem_ctrls0_1.readEnergy              250628280                       # Energy for read commands per rank (pJ)
system.mem_ctrls0_1.writeEnergy              95839200                       # Energy for write commands per rank (pJ)
system.mem_ctrls0_1.refreshEnergy        4754240400.000001                       # Energy for refresh commands per rank (pJ)
system.mem_ctrls0_1.actBackEnergy          2315340000                       # Energy for active background per rank (pJ)
system.mem_ctrls0_1.preBackEnergy           126440640                       # Energy for precharge background per rank (pJ)
system.mem_ctrls0_1.actPowerDownEnergy    18640255710                       # Energy for active power-down per rank (pJ)
system.mem_ctrls0_1.prePowerDownEnergy     4632582240                       # Energy for precharge power-down per rank (pJ)
system.mem_ctrls0_1.selfRefreshEnergy    232572845685                       # Energy for self refresh per rank (pJ)
system.mem_ctrls0_1.totalEnergy          263666075685                       # Total energy per rank (pJ)
system.mem_ctrls0_1.averagePower           256.782882                       # Core power per rank (mW)
system.mem_ctrls0_1.totalIdleTime        1021363465918                       # Total Idle time Per DRAM Rank
system.mem_ctrls0_1.memoryStateTime::IDLE    118880625                       # Time in different power states
system.mem_ctrls0_1.memoryStateTime::REF   2012738000                       # Time in different power states
system.mem_ctrls0_1.memoryStateTime::SREF 968456404001                       # Time in different power states
system.mem_ctrls0_1.memoryStateTime::PRE_PDN  12064792685                       # Time in different power states
system.mem_ctrls0_1.memoryStateTime::ACT   3274886313                       # Time in different power states
system.mem_ctrls0_1.memoryStateTime::ACT_PDN  40877797377                       # Time in different power states
system.mem_ctrls1.pwrStateResidencyTicks::UNDEFINED 111353024253258                       # Cumulative time (in ticks) in various power states
system.mem_ctrls1.bytes_read::cpu.inst             64                       # Number of bytes read from this memory
system.mem_ctrls1.bytes_read::cpu.data             64                       # Number of bytes read from this memory
system.mem_ctrls1.bytes_read::switch_cpus.inst        16896                       # Number of bytes read from this memory
system.mem_ctrls1.bytes_read::switch_cpus.data      2450560                       # Number of bytes read from this memory
system.mem_ctrls1.bytes_read::switch_cpus_1.inst         4928                       # Number of bytes read from this memory
system.mem_ctrls1.bytes_read::switch_cpus_1.data      2018880                       # Number of bytes read from this memory
system.mem_ctrls1.bytes_read::total           4491392                       # Number of bytes read from this memory
system.mem_ctrls1.bytes_inst_read::cpu.inst           64                       # Number of instructions bytes read from this memory
system.mem_ctrls1.bytes_inst_read::switch_cpus.inst        16896                       # Number of instructions bytes read from this memory
system.mem_ctrls1.bytes_inst_read::switch_cpus_1.inst         4928                       # Number of instructions bytes read from this memory
system.mem_ctrls1.bytes_inst_read::total        21888                       # Number of instructions bytes read from this memory
system.mem_ctrls1.bytes_written::writebacks      2346624                       # Number of bytes written to this memory
system.mem_ctrls1.bytes_written::total        2346624                       # Number of bytes written to this memory
system.mem_ctrls1.num_reads::cpu.inst               1                       # Number of read requests responded to by this memory
system.mem_ctrls1.num_reads::cpu.data               1                       # Number of read requests responded to by this memory
system.mem_ctrls1.num_reads::switch_cpus.inst          264                       # Number of read requests responded to by this memory
system.mem_ctrls1.num_reads::switch_cpus.data        38290                       # Number of read requests responded to by this memory
system.mem_ctrls1.num_reads::switch_cpus_1.inst           77                       # Number of read requests responded to by this memory
system.mem_ctrls1.num_reads::switch_cpus_1.data        31545                       # Number of read requests responded to by this memory
system.mem_ctrls1.num_reads::total              70178                       # Number of read requests responded to by this memory
system.mem_ctrls1.num_writes::writebacks        36666                       # Number of write requests responded to by this memory
system.mem_ctrls1.num_writes::total             36666                       # Number of write requests responded to by this memory
system.mem_ctrls1.bw_read::cpu.inst                62                       # Total read bandwidth from this memory (bytes/s)
system.mem_ctrls1.bw_read::cpu.data                62                       # Total read bandwidth from this memory (bytes/s)
system.mem_ctrls1.bw_read::switch_cpus.inst        16455                       # Total read bandwidth from this memory (bytes/s)
system.mem_ctrls1.bw_read::switch_cpus.data      2386586                       # Total read bandwidth from this memory (bytes/s)
system.mem_ctrls1.bw_read::switch_cpus_1.inst         4799                       # Total read bandwidth from this memory (bytes/s)
system.mem_ctrls1.bw_read::switch_cpus_1.data      1966176                       # Total read bandwidth from this memory (bytes/s)
system.mem_ctrls1.bw_read::total              4374141                       # Total read bandwidth from this memory (bytes/s)
system.mem_ctrls1.bw_inst_read::cpu.inst           62                       # Instruction read bandwidth from this memory (bytes/s)
system.mem_ctrls1.bw_inst_read::switch_cpus.inst        16455                       # Instruction read bandwidth from this memory (bytes/s)
system.mem_ctrls1.bw_inst_read::switch_cpus_1.inst         4799                       # Instruction read bandwidth from this memory (bytes/s)
system.mem_ctrls1.bw_inst_read::total           21317                       # Instruction read bandwidth from this memory (bytes/s)
system.mem_ctrls1.bw_write::writebacks        2285364                       # Write bandwidth from this memory (bytes/s)
system.mem_ctrls1.bw_write::total             2285364                       # Write bandwidth from this memory (bytes/s)
system.mem_ctrls1.bw_total::writebacks        2285364                       # Total bandwidth to/from this memory (bytes/s)
system.mem_ctrls1.bw_total::cpu.inst               62                       # Total bandwidth to/from this memory (bytes/s)
system.mem_ctrls1.bw_total::cpu.data               62                       # Total bandwidth to/from this memory (bytes/s)
system.mem_ctrls1.bw_total::switch_cpus.inst        16455                       # Total bandwidth to/from this memory (bytes/s)
system.mem_ctrls1.bw_total::switch_cpus.data      2386586                       # Total bandwidth to/from this memory (bytes/s)
system.mem_ctrls1.bw_total::switch_cpus_1.inst         4799                       # Total bandwidth to/from this memory (bytes/s)
system.mem_ctrls1.bw_total::switch_cpus_1.data      1966176                       # Total bandwidth to/from this memory (bytes/s)
system.mem_ctrls1.bw_total::total             6659505                       # Total bandwidth to/from this memory (bytes/s)
system.mem_ctrls1.readReqs                      70178                       # Number of read requests accepted
system.mem_ctrls1.writeReqs                     36666                       # Number of write requests accepted
system.mem_ctrls1.readBursts                    70178                       # Number of DRAM read bursts, including those serviced by the write queue
system.mem_ctrls1.writeBursts                   36666                       # Number of DRAM write bursts, including those merged in the write queue
system.mem_ctrls1.bytesReadDRAM               4488128                       # Total number of bytes read from DRAM
system.mem_ctrls1.bytesReadWrQ                   3264                       # Total number of bytes read from write queue
system.mem_ctrls1.bytesWritten                2345536                       # Total number of bytes written to DRAM
system.mem_ctrls1.bytesReadSys                4491392                       # Total read bytes from the system interface side
system.mem_ctrls1.bytesWrittenSys             2346624                       # Total written bytes from the system interface side
system.mem_ctrls1.servicedByWrQ                    51                       # Number of DRAM read bursts serviced by the write queue
system.mem_ctrls1.mergedWrBursts                    0                       # Number of DRAM write bursts merged with an existing one
system.mem_ctrls1.neitherReadNorWriteReqs            0                       # Number of requests that are neither read nor write
system.mem_ctrls1.perBankRdBursts::0             4378                       # Per bank write bursts
system.mem_ctrls1.perBankRdBursts::1             3712                       # Per bank write bursts
system.mem_ctrls1.perBankRdBursts::2             4059                       # Per bank write bursts
system.mem_ctrls1.perBankRdBursts::3             4991                       # Per bank write bursts
system.mem_ctrls1.perBankRdBursts::4             4979                       # Per bank write bursts
system.mem_ctrls1.perBankRdBursts::5             4362                       # Per bank write bursts
system.mem_ctrls1.perBankRdBursts::6             4017                       # Per bank write bursts
system.mem_ctrls1.perBankRdBursts::7             4577                       # Per bank write bursts
system.mem_ctrls1.perBankRdBursts::8             4432                       # Per bank write bursts
system.mem_ctrls1.perBankRdBursts::9             3867                       # Per bank write bursts
system.mem_ctrls1.perBankRdBursts::10            4395                       # Per bank write bursts
system.mem_ctrls1.perBankRdBursts::11            4727                       # Per bank write bursts
system.mem_ctrls1.perBankRdBursts::12            4899                       # Per bank write bursts
system.mem_ctrls1.perBankRdBursts::13            4289                       # Per bank write bursts
system.mem_ctrls1.perBankRdBursts::14            4092                       # Per bank write bursts
system.mem_ctrls1.perBankRdBursts::15            4351                       # Per bank write bursts
system.mem_ctrls1.perBankWrBursts::0             2306                       # Per bank write bursts
system.mem_ctrls1.perBankWrBursts::1             1561                       # Per bank write bursts
system.mem_ctrls1.perBankWrBursts::2             2031                       # Per bank write bursts
system.mem_ctrls1.perBankWrBursts::3             2795                       # Per bank write bursts
system.mem_ctrls1.perBankWrBursts::4             2942                       # Per bank write bursts
system.mem_ctrls1.perBankWrBursts::5             2375                       # Per bank write bursts
system.mem_ctrls1.perBankWrBursts::6             1883                       # Per bank write bursts
system.mem_ctrls1.perBankWrBursts::7             2429                       # Per bank write bursts
system.mem_ctrls1.perBankWrBursts::8             2306                       # Per bank write bursts
system.mem_ctrls1.perBankWrBursts::9             1797                       # Per bank write bursts
system.mem_ctrls1.perBankWrBursts::10            2251                       # Per bank write bursts
system.mem_ctrls1.perBankWrBursts::11            2709                       # Per bank write bursts
system.mem_ctrls1.perBankWrBursts::12            2761                       # Per bank write bursts
system.mem_ctrls1.perBankWrBursts::13            2126                       # Per bank write bursts
system.mem_ctrls1.perBankWrBursts::14            2022                       # Per bank write bursts
system.mem_ctrls1.perBankWrBursts::15            2355                       # Per bank write bursts
system.mem_ctrls1.numRdRetry                        0                       # Number of times read queue was full causing retry
system.mem_ctrls1.numWrRetry                        0                       # Number of times write queue was full causing retry
system.mem_ctrls1.totGap                 1026804895938                       # Total gap between requests
system.mem_ctrls1.readPktSize::0                    0                       # Read request sizes (log2)
system.mem_ctrls1.readPktSize::1                    0                       # Read request sizes (log2)
system.mem_ctrls1.readPktSize::2                    0                       # Read request sizes (log2)
system.mem_ctrls1.readPktSize::3                    0                       # Read request sizes (log2)
system.mem_ctrls1.readPktSize::4                    0                       # Read request sizes (log2)
system.mem_ctrls1.readPktSize::5                    0                       # Read request sizes (log2)
system.mem_ctrls1.readPktSize::6                70178                       # Read request sizes (log2)
system.mem_ctrls1.writePktSize::0                   0                       # Write request sizes (log2)
system.mem_ctrls1.writePktSize::1                   0                       # Write request sizes (log2)
system.mem_ctrls1.writePktSize::2                   0                       # Write request sizes (log2)
system.mem_ctrls1.writePktSize::3                   0                       # Write request sizes (log2)
system.mem_ctrls1.writePktSize::4                   0                       # Write request sizes (log2)
system.mem_ctrls1.writePktSize::5                   0                       # Write request sizes (log2)
system.mem_ctrls1.writePktSize::6               36666                       # Write request sizes (log2)
system.mem_ctrls1.rdQLenPdf::0                  65341                       # What read queue length does an incoming req see
system.mem_ctrls1.rdQLenPdf::1                   4594                       # What read queue length does an incoming req see
system.mem_ctrls1.rdQLenPdf::2                    192                       # What read queue length does an incoming req see
system.mem_ctrls1.rdQLenPdf::3                      0                       # What read queue length does an incoming req see
system.mem_ctrls1.rdQLenPdf::4                      0                       # What read queue length does an incoming req see
system.mem_ctrls1.rdQLenPdf::5                      0                       # What read queue length does an incoming req see
system.mem_ctrls1.rdQLenPdf::6                      0                       # What read queue length does an incoming req see
system.mem_ctrls1.rdQLenPdf::7                      0                       # What read queue length does an incoming req see
system.mem_ctrls1.rdQLenPdf::8                      0                       # What read queue length does an incoming req see
system.mem_ctrls1.rdQLenPdf::9                      0                       # What read queue length does an incoming req see
system.mem_ctrls1.rdQLenPdf::10                     0                       # What read queue length does an incoming req see
system.mem_ctrls1.rdQLenPdf::11                     0                       # What read queue length does an incoming req see
system.mem_ctrls1.rdQLenPdf::12                     0                       # What read queue length does an incoming req see
system.mem_ctrls1.rdQLenPdf::13                     0                       # What read queue length does an incoming req see
system.mem_ctrls1.rdQLenPdf::14                     0                       # What read queue length does an incoming req see
system.mem_ctrls1.rdQLenPdf::15                     0                       # What read queue length does an incoming req see
system.mem_ctrls1.rdQLenPdf::16                     0                       # What read queue length does an incoming req see
system.mem_ctrls1.rdQLenPdf::17                     0                       # What read queue length does an incoming req see
system.mem_ctrls1.rdQLenPdf::18                     0                       # What read queue length does an incoming req see
system.mem_ctrls1.rdQLenPdf::19                     0                       # What read queue length does an incoming req see
system.mem_ctrls1.rdQLenPdf::20                     0                       # What read queue length does an incoming req see
system.mem_ctrls1.rdQLenPdf::21                     0                       # What read queue length does an incoming req see
system.mem_ctrls1.rdQLenPdf::22                     0                       # What read queue length does an incoming req see
system.mem_ctrls1.rdQLenPdf::23                     0                       # What read queue length does an incoming req see
system.mem_ctrls1.rdQLenPdf::24                     0                       # What read queue length does an incoming req see
system.mem_ctrls1.rdQLenPdf::25                     0                       # What read queue length does an incoming req see
system.mem_ctrls1.rdQLenPdf::26                     0                       # What read queue length does an incoming req see
system.mem_ctrls1.rdQLenPdf::27                     0                       # What read queue length does an incoming req see
system.mem_ctrls1.rdQLenPdf::28                     0                       # What read queue length does an incoming req see
system.mem_ctrls1.rdQLenPdf::29                     0                       # What read queue length does an incoming req see
system.mem_ctrls1.rdQLenPdf::30                     0                       # What read queue length does an incoming req see
system.mem_ctrls1.rdQLenPdf::31                     0                       # What read queue length does an incoming req see
system.mem_ctrls1.wrQLenPdf::0                      2                       # What write queue length does an incoming req see
system.mem_ctrls1.wrQLenPdf::1                      2                       # What write queue length does an incoming req see
system.mem_ctrls1.wrQLenPdf::2                      2                       # What write queue length does an incoming req see
system.mem_ctrls1.wrQLenPdf::3                      2                       # What write queue length does an incoming req see
system.mem_ctrls1.wrQLenPdf::4                      2                       # What write queue length does an incoming req see
system.mem_ctrls1.wrQLenPdf::5                      2                       # What write queue length does an incoming req see
system.mem_ctrls1.wrQLenPdf::6                      2                       # What write queue length does an incoming req see
system.mem_ctrls1.wrQLenPdf::7                      2                       # What write queue length does an incoming req see
system.mem_ctrls1.wrQLenPdf::8                      2                       # What write queue length does an incoming req see
system.mem_ctrls1.wrQLenPdf::9                      2                       # What write queue length does an incoming req see
system.mem_ctrls1.wrQLenPdf::10                     2                       # What write queue length does an incoming req see
system.mem_ctrls1.wrQLenPdf::11                     2                       # What write queue length does an incoming req see
system.mem_ctrls1.wrQLenPdf::12                     2                       # What write queue length does an incoming req see
system.mem_ctrls1.wrQLenPdf::13                     2                       # What write queue length does an incoming req see
system.mem_ctrls1.wrQLenPdf::14                     2                       # What write queue length does an incoming req see
system.mem_ctrls1.wrQLenPdf::15                  1738                       # What write queue length does an incoming req see
system.mem_ctrls1.wrQLenPdf::16                  1821                       # What write queue length does an incoming req see
system.mem_ctrls1.wrQLenPdf::17                  2024                       # What write queue length does an incoming req see
system.mem_ctrls1.wrQLenPdf::18                  2057                       # What write queue length does an incoming req see
system.mem_ctrls1.wrQLenPdf::19                  2073                       # What write queue length does an incoming req see
system.mem_ctrls1.wrQLenPdf::20                  2070                       # What write queue length does an incoming req see
system.mem_ctrls1.wrQLenPdf::21                  2074                       # What write queue length does an incoming req see
system.mem_ctrls1.wrQLenPdf::22                  2076                       # What write queue length does an incoming req see
system.mem_ctrls1.wrQLenPdf::23                  2073                       # What write queue length does an incoming req see
system.mem_ctrls1.wrQLenPdf::24                  2096                       # What write queue length does an incoming req see
system.mem_ctrls1.wrQLenPdf::25                  2091                       # What write queue length does an incoming req see
system.mem_ctrls1.wrQLenPdf::26                  2069                       # What write queue length does an incoming req see
system.mem_ctrls1.wrQLenPdf::27                  2058                       # What write queue length does an incoming req see
system.mem_ctrls1.wrQLenPdf::28                  2058                       # What write queue length does an incoming req see
system.mem_ctrls1.wrQLenPdf::29                  2076                       # What write queue length does an incoming req see
system.mem_ctrls1.wrQLenPdf::30                  2093                       # What write queue length does an incoming req see
system.mem_ctrls1.wrQLenPdf::31                  2037                       # What write queue length does an incoming req see
system.mem_ctrls1.wrQLenPdf::32                  2036                       # What write queue length does an incoming req see
system.mem_ctrls1.wrQLenPdf::33                    13                       # What write queue length does an incoming req see
system.mem_ctrls1.wrQLenPdf::34                     2                       # What write queue length does an incoming req see
system.mem_ctrls1.wrQLenPdf::35                     1                       # What write queue length does an incoming req see
system.mem_ctrls1.wrQLenPdf::36                     0                       # What write queue length does an incoming req see
system.mem_ctrls1.wrQLenPdf::37                     0                       # What write queue length does an incoming req see
system.mem_ctrls1.wrQLenPdf::38                     0                       # What write queue length does an incoming req see
system.mem_ctrls1.wrQLenPdf::39                     0                       # What write queue length does an incoming req see
system.mem_ctrls1.wrQLenPdf::40                     0                       # What write queue length does an incoming req see
system.mem_ctrls1.wrQLenPdf::41                     0                       # What write queue length does an incoming req see
system.mem_ctrls1.wrQLenPdf::42                     0                       # What write queue length does an incoming req see
system.mem_ctrls1.wrQLenPdf::43                     0                       # What write queue length does an incoming req see
system.mem_ctrls1.wrQLenPdf::44                     0                       # What write queue length does an incoming req see
system.mem_ctrls1.wrQLenPdf::45                     0                       # What write queue length does an incoming req see
system.mem_ctrls1.wrQLenPdf::46                     0                       # What write queue length does an incoming req see
system.mem_ctrls1.wrQLenPdf::47                     0                       # What write queue length does an incoming req see
system.mem_ctrls1.wrQLenPdf::48                     0                       # What write queue length does an incoming req see
system.mem_ctrls1.wrQLenPdf::49                     0                       # What write queue length does an incoming req see
system.mem_ctrls1.wrQLenPdf::50                     0                       # What write queue length does an incoming req see
system.mem_ctrls1.wrQLenPdf::51                     0                       # What write queue length does an incoming req see
system.mem_ctrls1.wrQLenPdf::52                     0                       # What write queue length does an incoming req see
system.mem_ctrls1.wrQLenPdf::53                     0                       # What write queue length does an incoming req see
system.mem_ctrls1.wrQLenPdf::54                     0                       # What write queue length does an incoming req see
system.mem_ctrls1.wrQLenPdf::55                     0                       # What write queue length does an incoming req see
system.mem_ctrls1.wrQLenPdf::56                     0                       # What write queue length does an incoming req see
system.mem_ctrls1.wrQLenPdf::57                     0                       # What write queue length does an incoming req see
system.mem_ctrls1.wrQLenPdf::58                     0                       # What write queue length does an incoming req see
system.mem_ctrls1.wrQLenPdf::59                     0                       # What write queue length does an incoming req see
system.mem_ctrls1.wrQLenPdf::60                     0                       # What write queue length does an incoming req see
system.mem_ctrls1.wrQLenPdf::61                     0                       # What write queue length does an incoming req see
system.mem_ctrls1.wrQLenPdf::62                     0                       # What write queue length does an incoming req see
system.mem_ctrls1.wrQLenPdf::63                     0                       # What write queue length does an incoming req see
system.mem_ctrls1.bytesPerActivate::samples        50756                       # Bytes accessed per row activation
system.mem_ctrls1.bytesPerActivate::mean   134.637560                       # Bytes accessed per row activation
system.mem_ctrls1.bytesPerActivate::gmean   110.213811                       # Bytes accessed per row activation
system.mem_ctrls1.bytesPerActivate::stdev   110.247195                       # Bytes accessed per row activation
system.mem_ctrls1.bytesPerActivate::0-127        22595     44.52%     44.52% # Bytes accessed per row activation
system.mem_ctrls1.bytesPerActivate::128-255        23657     46.61%     91.13% # Bytes accessed per row activation
system.mem_ctrls1.bytesPerActivate::256-383         2051      4.04%     95.17% # Bytes accessed per row activation
system.mem_ctrls1.bytesPerActivate::384-511         1148      2.26%     97.43% # Bytes accessed per row activation
system.mem_ctrls1.bytesPerActivate::512-639          693      1.37%     98.79% # Bytes accessed per row activation
system.mem_ctrls1.bytesPerActivate::640-767          362      0.71%     99.51% # Bytes accessed per row activation
system.mem_ctrls1.bytesPerActivate::768-895          169      0.33%     99.84% # Bytes accessed per row activation
system.mem_ctrls1.bytesPerActivate::896-1023           67      0.13%     99.97% # Bytes accessed per row activation
system.mem_ctrls1.bytesPerActivate::1024-1151           14      0.03%    100.00% # Bytes accessed per row activation
system.mem_ctrls1.bytesPerActivate::total        50756                       # Bytes accessed per row activation
system.mem_ctrls1.rdPerTurnAround::samples         2037                       # Reads before turning the bus around for writes
system.mem_ctrls1.rdPerTurnAround::mean     34.426608                       # Reads before turning the bus around for writes
system.mem_ctrls1.rdPerTurnAround::stdev   707.960738                       # Reads before turning the bus around for writes
system.mem_ctrls1.rdPerTurnAround::0-1023         2036     99.95%     99.95% # Reads before turning the bus around for writes
system.mem_ctrls1.rdPerTurnAround::31744-32767            1      0.05%    100.00% # Reads before turning the bus around for writes
system.mem_ctrls1.rdPerTurnAround::total         2037                       # Reads before turning the bus around for writes
system.mem_ctrls1.wrPerTurnAround::samples         2037                       # Writes before turning the bus around for reads
system.mem_ctrls1.wrPerTurnAround::mean     17.991654                       # Writes before turning the bus around for reads
system.mem_ctrls1.wrPerTurnAround::gmean    17.967003                       # Writes before turning the bus around for reads
system.mem_ctrls1.wrPerTurnAround::stdev     0.948802                       # Writes before turning the bus around for reads
system.mem_ctrls1.wrPerTurnAround::16             222     10.90%     10.90% # Writes before turning the bus around for reads
system.mem_ctrls1.wrPerTurnAround::17              68      3.34%     14.24% # Writes before turning the bus around for reads
system.mem_ctrls1.wrPerTurnAround::18            1355     66.52%     80.76% # Writes before turning the bus around for reads
system.mem_ctrls1.wrPerTurnAround::19             320     15.71%     96.47% # Writes before turning the bus around for reads
system.mem_ctrls1.wrPerTurnAround::20              53      2.60%     99.07% # Writes before turning the bus around for reads
system.mem_ctrls1.wrPerTurnAround::21              16      0.79%     99.85% # Writes before turning the bus around for reads
system.mem_ctrls1.wrPerTurnAround::22               2      0.10%     99.95% # Writes before turning the bus around for reads
system.mem_ctrls1.wrPerTurnAround::31               1      0.05%    100.00% # Writes before turning the bus around for reads
system.mem_ctrls1.wrPerTurnAround::total         2037                       # Writes before turning the bus around for reads
system.mem_ctrls1.totQLat                  1330520630                       # Total ticks spent queuing
system.mem_ctrls1.totMemAccLat             2645401880                       # Total ticks spent from burst creation until serviced by the DRAM
system.mem_ctrls1.totBusLat                 350635000                       # Total ticks spent in databus transfers
system.mem_ctrls1.avgQLat                    18973.02                       # Average queueing delay per DRAM burst
system.mem_ctrls1.avgBusLat                   5000.00                       # Average bus latency per DRAM burst
system.mem_ctrls1.avgMemAccLat               37723.02                       # Average memory access latency per DRAM burst
system.mem_ctrls1.avgRdBW                        4.37                       # Average DRAM read bandwidth in MiByte/s
system.mem_ctrls1.avgWrBW                        2.28                       # Average achieved write bandwidth in MiByte/s
system.mem_ctrls1.avgRdBWSys                     4.37                       # Average system read bandwidth in MiByte/s
system.mem_ctrls1.avgWrBWSys                     2.29                       # Average system write bandwidth in MiByte/s
system.mem_ctrls1.peakBW                     12800.00                       # Theoretical peak bandwidth in MiByte/s
system.mem_ctrls1.busUtil                        0.05                       # Data bus utilization in percentage
system.mem_ctrls1.busUtilRead                    0.03                       # Data bus utilization in percentage for reads
system.mem_ctrls1.busUtilWrite                   0.02                       # Data bus utilization in percentage for writes
system.mem_ctrls1.avgRdQLen                      1.00                       # Average read queue length when enqueuing
system.mem_ctrls1.avgWrQLen                      0.80                       # Average write queue length when enqueuing
system.mem_ctrls1.readRowHits                   45280                       # Number of row buffer hits during reads
system.mem_ctrls1.writeRowHits                  10740                       # Number of row buffer hits during writes
system.mem_ctrls1.readRowHitRate                64.57                       # Row buffer hit rate for reads
system.mem_ctrls1.writeRowHitRate               29.29                       # Row buffer hit rate for writes
system.mem_ctrls1.avgGap                   9610318.74                       # Average gap between requests
system.mem_ctrls1.pageHitRate                   52.46                       # Row buffer hit rate, read and write combined
system.mem_ctrls1_0.actEnergy               181298880                       # Energy for activate commands per rank (pJ)
system.mem_ctrls1_0.preEnergy                96362640                       # Energy for precharge commands per rank (pJ)
system.mem_ctrls1_0.readEnergy              250435500                       # Energy for read commands per rank (pJ)
system.mem_ctrls1_0.writeEnergy              95640840                       # Energy for write commands per rank (pJ)
system.mem_ctrls1_0.refreshEnergy        4826153280.000001                       # Energy for refresh commands per rank (pJ)
system.mem_ctrls1_0.actBackEnergy          2310110820                       # Energy for active background per rank (pJ)
system.mem_ctrls1_0.preBackEnergy           130046400                       # Energy for precharge background per rank (pJ)
system.mem_ctrls1_0.actPowerDownEnergy    19011116520                       # Energy for active power-down per rank (pJ)
system.mem_ctrls1_0.prePowerDownEnergy     4579454400                       # Energy for precharge power-down per rank (pJ)
system.mem_ctrls1_0.selfRefreshEnergy    232429670820                       # Energy for self refresh per rank (pJ)
system.mem_ctrls1_0.totalEnergy          263910780360                       # Total energy per rank (pJ)
system.mem_ctrls1_0.averagePower           257.021199                       # Core power per rank (mW)
system.mem_ctrls1_0.totalIdleTime        1021397779682                       # Total Idle time Per DRAM Rank
system.mem_ctrls1_0.memoryStateTime::IDLE    126626707                       # Time in different power states
system.mem_ctrls1_0.memoryStateTime::REF   2043326000                       # Time in different power states
system.mem_ctrls1_0.memoryStateTime::SREF 967782997590                       # Time in different power states
system.mem_ctrls1_0.memoryStateTime::PRE_PDN  11926659042                       # Time in different power states
system.mem_ctrls1_0.memoryStateTime::ACT   3236100951                       # Time in different power states
system.mem_ctrls1_0.memoryStateTime::ACT_PDN  41689788711                       # Time in different power states
system.mem_ctrls1_1.actEnergy               181098960                       # Energy for activate commands per rank (pJ)
system.mem_ctrls1_1.preEnergy                96256380                       # Energy for precharge commands per rank (pJ)
system.mem_ctrls1_1.readEnergy              250271280                       # Energy for read commands per rank (pJ)
system.mem_ctrls1_1.writeEnergy              95666940                       # Energy for write commands per rank (pJ)
system.mem_ctrls1_1.refreshEnergy        4709986320.000001                       # Energy for refresh commands per rank (pJ)
system.mem_ctrls1_1.actBackEnergy          2331497220                       # Energy for active background per rank (pJ)
system.mem_ctrls1_1.preBackEnergy           123750240                       # Energy for precharge background per rank (pJ)
system.mem_ctrls1_1.actPowerDownEnergy    18537074880                       # Energy for active power-down per rank (pJ)
system.mem_ctrls1_1.prePowerDownEnergy     4557694560                       # Energy for precharge power-down per rank (pJ)
system.mem_ctrls1_1.selfRefreshEnergy    232654490775                       # Energy for self refresh per rank (pJ)
system.mem_ctrls1_1.totalEnergy          263538344745                       # Total energy per rank (pJ)
system.mem_ctrls1_1.averagePower           256.658486                       # Core power per rank (mW)
system.mem_ctrls1_1.totalIdleTime        1021367940216                       # Total Idle time Per DRAM Rank
system.mem_ctrls1_1.memoryStateTime::IDLE    114222645                       # Time in different power states
system.mem_ctrls1_1.memoryStateTime::REF   1993814000                       # Time in different power states
system.mem_ctrls1_1.memoryStateTime::SREF 968848584840                       # Time in different power states
system.mem_ctrls1_1.memoryStateTime::PRE_PDN  11869229690                       # Time in different power states
system.mem_ctrls1_1.memoryStateTime::ACT   3327856479                       # Time in different power states
system.mem_ctrls1_1.memoryStateTime::ACT_PDN  40651791347                       # Time in different power states
system.pwrStateResidencyTicks::UNDEFINED 111353024253258                       # Cumulative time (in ticks) in various power states
system.cpu.branchPred.lookups                      16                       # Number of BP lookups
system.cpu.branchPred.condPredicted                16                       # Number of conditional branches predicted
system.cpu.branchPred.condIncorrect                13                       # Number of conditional branches incorrect
system.cpu.branchPred.BTBLookups                    0                       # Number of BTB lookups
system.cpu.branchPred.BTBHits                       0                       # Number of BTB hits
system.cpu.branchPred.BTBCorrect                    0                       # Number of correct BTB predictions (this stat may not work properly.
system.cpu.branchPred.BTBHitPct                   nan                       # BTB Hit Percentage
system.cpu.branchPred.usedRAS                       0                       # Number of times the RAS was used to get a target.
system.cpu.branchPred.RASInCorrect                  0                       # Number of incorrect RAS predictions.
system.cpu.branchPred.indirectLookups               0                       # Number of indirect predictor lookups.
system.cpu.branchPred.indirectHits                  0                       # Number of indirect target hits.
system.cpu.branchPred.indirectMisses                0                       # Number of indirect misses.
system.cpu.branchPredindirectMispredicted            0                       # Number of mispredicted indirect branches.
system.cpu_voltage_domain.voltage                   1                       # Voltage in Volts
system.cpu_clk_domain.clock                       333                       # Clock period in ticks
system.cpu.dtb.fetch_hits                           0                       # ITB hits
system.cpu.dtb.fetch_misses                         0                       # ITB misses
system.cpu.dtb.fetch_acv                            0                       # ITB acv
system.cpu.dtb.fetch_accesses                       0                       # ITB accesses
system.cpu.dtb.read_hits                           28                       # DTB read hits
system.cpu.dtb.read_misses                          0                       # DTB read misses
system.cpu.dtb.read_acv                             0                       # DTB read access violations
system.cpu.dtb.read_accesses                       28                       # DTB read accesses
system.cpu.dtb.write_hits                          14                       # DTB write hits
system.cpu.dtb.write_misses                         0                       # DTB write misses
system.cpu.dtb.write_acv                            0                       # DTB write access violations
system.cpu.dtb.write_accesses                      14                       # DTB write accesses
system.cpu.dtb.data_hits                           42                       # DTB hits
system.cpu.dtb.data_misses                          0                       # DTB misses
system.cpu.dtb.data_acv                             0                       # DTB access violations
system.cpu.dtb.data_accesses                       42                       # DTB accesses
system.cpu.itb.fetch_hits                          30                       # ITB hits
system.cpu.itb.fetch_misses                         0                       # ITB misses
system.cpu.itb.fetch_acv                            0                       # ITB acv
system.cpu.itb.fetch_accesses                      30                       # ITB accesses
system.cpu.itb.read_hits                            0                       # DTB read hits
system.cpu.itb.read_misses                          0                       # DTB read misses
system.cpu.itb.read_acv                             0                       # DTB read access violations
system.cpu.itb.read_accesses                        0                       # DTB read accesses
system.cpu.itb.write_hits                           0                       # DTB write hits
system.cpu.itb.write_misses                         0                       # DTB write misses
system.cpu.itb.write_acv                            0                       # DTB write access violations
system.cpu.itb.write_accesses                       0                       # DTB write accesses
system.cpu.itb.data_hits                            0                       # DTB hits
system.cpu.itb.data_misses                          0                       # DTB misses
system.cpu.itb.data_acv                             0                       # DTB access violations
system.cpu.itb.data_accesses                        0                       # DTB accesses
system.cpu.workload.num_syscalls                    6                       # Number of system calls
system.cpu.pwrStateResidencyTicks::ON    1026805499001                       # Cumulative time (in ticks) in various power states
system.cpu.numCycles                              768                       # number of cpu cycles simulated
system.cpu.numWorkItemsStarted                      0                       # number of work items this cpu started
system.cpu.numWorkItemsCompleted                    0                       # number of work items this cpu completed
system.cpu.fetch.icacheStallCycles                176                       # Number of cycles fetch is stalled on an Icache miss
system.cpu.fetch.Insts                            176                       # Number of instructions fetch has processed
system.cpu.fetch.Branches                          16                       # Number of branches that fetch encountered
system.cpu.fetch.Cycles                            29                       # Number of cycles fetch has run and was not squashing or blocked
system.cpu.fetch.SquashCycles                      29                       # Number of cycles fetch has spent squashing
system.cpu.fetch.PendingDrainCycles                23                       # Number of cycles fetch has spent waiting on pipes to drain
system.cpu.fetch.CacheLines                        30                       # Number of cache lines fetched
system.cpu.fetch.IcacheSquashes                    15                       # Number of outstanding Icache misses that were squashed
system.cpu.fetch.rateDist::samples                242                       # Number of instructions fetched each cycle (Total)
system.cpu.fetch.rateDist::mean              0.727273                       # Number of instructions fetched each cycle (Total)
system.cpu.fetch.rateDist::stdev             2.093261                       # Number of instructions fetched each cycle (Total)
system.cpu.fetch.rateDist::underflows               0      0.00%      0.00% # Number of instructions fetched each cycle (Total)
system.cpu.fetch.rateDist::0                      213     88.02%     88.02% # Number of instructions fetched each cycle (Total)
system.cpu.fetch.rateDist::1                        0      0.00%     88.02% # Number of instructions fetched each cycle (Total)
system.cpu.fetch.rateDist::2                        0      0.00%     88.02% # Number of instructions fetched each cycle (Total)
system.cpu.fetch.rateDist::3                        0      0.00%     88.02% # Number of instructions fetched each cycle (Total)
system.cpu.fetch.rateDist::4                       14      5.79%     93.80% # Number of instructions fetched each cycle (Total)
system.cpu.fetch.rateDist::5                        0      0.00%     93.80% # Number of instructions fetched each cycle (Total)
[...]
system.switch_cpus_1.iq.int_inst_queue_writes    202640751                       # Number of integer instruction queue writes
system.switch_cpus_1.iq.int_inst_queue_wakeup_accesses    200868771                       # Number of integer instruction queue wakeup accesses
system.switch_cpus_1.iq.fp_inst_queue_reads        21629                       # Number of floating instruction queue reads
system.switch_cpus_1.iq.fp_inst_queue_writes        21423                       # Number of floating instruction queue writes
system.switch_cpus_1.iq.fp_inst_queue_wakeup_accesses         9514                       # Number of floating instruction queue wakeup accesses
system.switch_cpus_1.iq.int_alu_accesses    204544020                       # Number of integer alu accesses
system.switch_cpus_1.iq.fp_alu_accesses         10946                       # Number of floating point alu accesses
system.switch_cpus_1.iew.lsq.thread0.forwLoads      2211277                       # Number of loads that had data forwarded from stores
system.switch_cpus_1.iew.lsq.thread0.invAddrLoads            0                       # Number of loads ignored due to an invalid address
system.switch_cpus_1.iew.lsq.thread0.squashedLoads       350733                       # Number of loads squashed
system.switch_cpus_1.iew.lsq.thread0.ignoredResponses          205                       # Number of memory responses ignored because the instruction is squashed
system.switch_cpus_1.iew.lsq.thread0.memOrderViolation         3511                       # Number of memory ordering violations
system.switch_cpus_1.iew.lsq.thread0.squashedStores       139517                       # Number of stores squashed
system.switch_cpus_1.iew.lsq.thread0.invAddrSwpfs            0                       # Number of software prefetches ignored due to an invalid address
system.switch_cpus_1.iew.lsq.thread0.blockedLoads            0                       # Number of blocked loads due to partial load-store forwarding
system.switch_cpus_1.iew.lsq.thread0.rescheduledLoads           36                       # Number of loads that were rescheduled
system.switch_cpus_1.iew.lsq.thread0.cacheBlocked       424953                       # Number of times an access to memory failed due to the cache being blocked
system.switch_cpus_1.iew.iewIdleCycles              0                       # Number of cycles IEW is idle
system.switch_cpus_1.iew.iewSquashCycles        36222                       # Number of cycles IEW is squashing
system.switch_cpus_1.iew.iewBlockCycles        344422                       # Number of cycles IEW is blocking
system.switch_cpus_1.iew.iewUnblockCycles      2505704                       # Number of cycles IEW is unblocking
system.switch_cpus_1.iew.iewDispatchedInsts    201463267                       # Number of instructions dispatched to IQ
system.switch_cpus_1.iew.iewDispSquashedInsts         1145                       # Number of squashed instructions skipped by dispatch
system.switch_cpus_1.iew.iewDispLoadInsts     53740533                       # Number of dispatched load instructions
system.switch_cpus_1.iew.iewDispStoreInsts     22318110                       # Number of dispatched store instructions
system.switch_cpus_1.iew.iewDispNonSpecInsts         1869                       # Number of dispatched non-speculative instructions
system.switch_cpus_1.iew.iewIQFullEvents         9694                       # Number of times the IQ has become full, causing a stall
system.switch_cpus_1.iew.iewLSQFullEvents      2482139                       # Number of times the LSQ has become full, causing a stall
system.switch_cpus_1.iew.memOrderViolationEvents         3511                       # Number of memory order violations
system.switch_cpus_1.iew.predictedTakenIncorrect        11669                       # Number of branches that were predicted taken incorrectly
system.switch_cpus_1.iew.predictedNotTakenIncorrect        16809                       # Number of branches that were predicted not taken incorrectly
system.switch_cpus_1.iew.branchMispredicts        28478                       # Number of branch mispredicts detected at execute
system.switch_cpus_1.iew.iewExecutedInsts    201358578                       # Number of executed instructions
system.switch_cpus_1.iew.iewExecLoadInsts     54077528                       # Number of load instructions executed
system.switch_cpus_1.iew.iewExecSquashedInsts        67132                       # Number of squashed instructions skipped in execute
system.switch_cpus_1.iew.exec_swp                   0                       # number of swp insts executed
system.switch_cpus_1.iew.exec_nop              133880                       # number of nop insts executed
system.switch_cpus_1.iew.exec_refs           76339013                       # number of memory reference insts executed
system.switch_cpus_1.iew.exec_branches        9159823                       # Number of branches executed
system.switch_cpus_1.iew.exec_stores         22261485                       # Number of stores executed
system.switch_cpus_1.iew.exec_rate           2.882891                       # Inst execution rate
system.switch_cpus_1.iew.wb_sent            200930364                       # cumulative count of insts sent to commit
system.switch_cpus_1.iew.wb_count           200878285                       # cumulative count of insts written-back
system.switch_cpus_1.iew.wb_producers       130032437                       # num instructions producing a value
system.switch_cpus_1.iew.wb_consumers       178515763                       # num instructions consuming a value
system.switch_cpus_1.iew.wb_rate             2.876015                       # insts written-back per cycle
system.switch_cpus_1.iew.wb_fanout           0.728409                       # average fanout of values written-back
system.switch_cpus_1.commit.commitSquashedInsts      1268854                       # The number of squashed insts skipped by commit
system.switch_cpus_1.commit.commitNonSpecStalls         2565                       # The number of times commit has been forced to stall to communicate backwards
system.switch_cpus_1.commit.branchMispredicts        27198                       # The number of times a branch was mispredicted
system.switch_cpus_1.commit.committed_per_cycle::samples     69617791                       # Number of insts commited each cycle
system.switch_cpus_1.commit.committed_per_cycle::mean     2.874317                       # Number of insts commited each cycle
system.switch_cpus_1.commit.committed_per_cycle::stdev     3.453769                       # Number of insts commited each cycle
system.switch_cpus_1.commit.committed_per_cycle::underflows            0      0.00%      0.00% # Number of insts commited each cycle
system.switch_cpus_1.commit.committed_per_cycle::0     29796180     42.80%     42.80% # Number of insts commited each cycle
system.switch_cpus_1.commit.committed_per_cycle::1     11488669     16.50%     59.30% # Number of insts commited each cycle
system.switch_cpus_1.commit.committed_per_cycle::2      2516211      3.61%     62.92% # Number of insts commited each cycle
system.switch_cpus_1.commit.committed_per_cycle::3      2940037      4.22%     67.14% # Number of insts commited each cycle
system.switch_cpus_1.commit.committed_per_cycle::4       419214      0.60%     67.74% # Number of insts commited each cycle
system.switch_cpus_1.commit.committed_per_cycle::5      1967476      2.83%     70.57% # Number of insts commited each cycle
system.switch_cpus_1.commit.committed_per_cycle::6       204063      0.29%     70.86% # Number of insts commited each cycle
system.switch_cpus_1.commit.committed_per_cycle::7       263734      0.38%     71.24% # Number of insts commited each cycle
system.switch_cpus_1.commit.committed_per_cycle::8     20022207     28.76%    100.00% # Number of insts commited each cycle
system.switch_cpus_1.commit.committed_per_cycle::overflows            0      0.00%    100.00% # Number of insts commited each cycle
system.switch_cpus_1.commit.committed_per_cycle::min_value            0                       # Number of insts commited each cycle
system.switch_cpus_1.commit.committed_per_cycle::max_value            8                       # Number of insts commited each cycle
system.switch_cpus_1.commit.committed_per_cycle::total     69617791                       # Number of insts commited each cycle
system.switch_cpus_1.commit.committedInsts    200103610                       # Number of instructions committed
system.switch_cpus_1.commit.committedOps    200103610                       # Number of ops (including micro ops) committed
system.switch_cpus_1.commit.swp_count               0                       # Number of s/w prefetches committed
system.switch_cpus_1.commit.refs             75568371                       # Number of memory references committed
system.switch_cpus_1.commit.loads            53389787                       # Number of loads committed
system.switch_cpus_1.commit.membars              1282                       # Number of memory barriers committed
system.switch_cpus_1.commit.branches          9081009                       # Number of branches committed
system.switch_cpus_1.commit.fp_insts             7063                       # Number of committed floating point instructions.
system.switch_cpus_1.commit.int_insts       199966042                       # Number of committed integer instructions.
system.switch_cpus_1.commit.function_calls        26169                       # Number of function calls committed.
system.switch_cpus_1.commit.op_class_0::No_OpClass       103604      0.05%      0.05% # Class of committed instruction
system.switch_cpus_1.commit.op_class_0::IntAlu    124425131     62.18%     62.23% # Class of committed instruction
system.switch_cpus_1.commit.op_class_0::IntMult           14      0.00%     62.23% # Class of committed instruction
system.switch_cpus_1.commit.op_class_0::IntDiv            0      0.00%     62.23% # Class of committed instruction
system.switch_cpus_1.commit.op_class_0::FloatAdd         3080      0.00%     62.23% # Class of committed instruction
system.switch_cpus_1.commit.op_class_0::FloatCmp          511      0.00%     62.23% # Class of committed instruction
system.switch_cpus_1.commit.op_class_0::FloatCvt          406      0.00%     62.23% # Class of committed instruction
system.switch_cpus_1.commit.op_class_0::FloatMult         1162      0.00%     62.23% # Class of committed instruction
system.switch_cpus_1.commit.op_class_0::FloatMultAcc            0      0.00%     62.23% # Class of committed instruction
system.switch_cpus_1.commit.op_class_0::FloatDiv           49      0.00%     62.23% # Class of committed instruction
system.switch_cpus_1.commit.op_class_0::FloatMisc            0      0.00%     62.23% # Class of committed instruction
system.switch_cpus_1.commit.op_class_0::FloatSqrt            0      0.00%     62.23% # Class of committed instruction
system.switch_cpus_1.commit.op_class_0::SimdAdd            0      0.00%     62.23% # Class of committed instruction
system.switch_cpus_1.commit.op_class_0::SimdAddAcc            0      0.00%     62.23% # Class of committed instruction
system.switch_cpus_1.commit.op_class_0::SimdAlu            0      0.00%     62.23% # Class of committed instruction
system.switch_cpus_1.commit.op_class_0::SimdCmp            0      0.00%     62.23% # Class of committed instruction
system.switch_cpus_1.commit.op_class_0::SimdCvt            0      0.00%     62.23% # Class of committed instruction
system.switch_cpus_1.commit.op_class_0::SimdMisc            0      0.00%     62.23% # Class of committed instruction
system.switch_cpus_1.commit.op_class_0::SimdMult            0      0.00%     62.23% # Class of committed instruction
system.switch_cpus_1.commit.op_class_0::SimdMultAcc            0      0.00%     62.23% # Class of committed instruction
system.switch_cpus_1.commit.op_class_0::SimdShift            0      0.00%     62.23% # Class of committed instruction
system.switch_cpus_1.commit.op_class_0::SimdShiftAcc            0      0.00%     62.23% # Class of committed instruction
system.switch_cpus_1.commit.op_class_0::SimdSqrt            0      0.00%     62.23% # Class of committed instruction
system.switch_cpus_1.commit.op_class_0::SimdFloatAdd            0      0.00%     62.23% # Class of committed instruction
system.switch_cpus_1.commit.op_class_0::SimdFloatAlu            0      0.00%     62.23% # Class of committed instruction
system.switch_cpus_1.commit.op_class_0::SimdFloatCmp            0      0.00%     62.23% # Class of committed instruction
system.switch_cpus_1.commit.op_class_0::SimdFloatCvt            0      0.00%     62.23% # Class of committed instruction
system.switch_cpus_1.commit.op_class_0::SimdFloatDiv            0      0.00%     62.23% # Class of committed instruction
system.switch_cpus_1.commit.op_class_0::SimdFloatMisc            0      0.00%     62.23% # Class of committed instruction
system.switch_cpus_1.commit.op_class_0::SimdFloatMult            0      0.00%     62.23% # Class of committed instruction
system.switch_cpus_1.commit.op_class_0::SimdFloatMultAcc            0      0.00%     62.23% # Class of committed instruction
system.switch_cpus_1.commit.op_class_0::SimdFloatSqrt            0      0.00%     62.23% # Class of committed instruction
system.switch_cpus_1.commit.op_class_0::MemRead     53389445     26.68%     88.92% # Class of committed instruction
system.switch_cpus_1.commit.op_class_0::MemWrite     22178353     11.08%    100.00% # Class of committed instruction
system.switch_cpus_1.commit.op_class_0::FloatMemRead         1624      0.00%    100.00% # Class of committed instruction
system.switch_cpus_1.commit.op_class_0::FloatMemWrite          231      0.00%    100.00% # Class of committed instruction
system.switch_cpus_1.commit.op_class_0::IprAccess            0      0.00%    100.00% # Class of committed instruction
system.switch_cpus_1.commit.op_class_0::InstPrefetch            0      0.00%    100.00% # Class of committed instruction
system.switch_cpus_1.commit.op_class_0::total    200103610                       # Class of committed instruction
system.switch_cpus_1.commit.bw_lim_events     20022207                       # number cycles where commit BW limit reached
system.switch_cpus_1.rob.rob_reads          250888917                       # The number of ROB reads
system.switch_cpus_1.rob.rob_writes         402931712                       # The number of ROB writes
system.switch_cpus_1.timesIdled                   886                       # Number of times that the entire CPU went into an idle state and unscheduled itself
system.switch_cpus_1.idleCycles                 43988                       # Total number of cycles that the CPU has spent unscheduled due to idling
system.switch_cpus_1.committedInsts         200000006                       # Number of Instructions Simulated
system.switch_cpus_1.committedOps           200000006                       # Number of Ops (including micro ops) Simulated
system.switch_cpus_1.cpi                     0.349230                       # CPI: Cycles Per Instruction
system.switch_cpus_1.cpi_total               0.349230                       # CPI: Total CPI of All Threads
system.switch_cpus_1.ipc                     2.863441                       # IPC: Instructions Per Cycle
system.switch_cpus_1.ipc_total               2.863441                       # IPC: Total IPC of All Threads
system.switch_cpus_1.int_regfile_reads      323290833                       # number of integer regfile reads
system.switch_cpus_1.int_regfile_writes     169528432                       # number of integer regfile writes
system.switch_cpus_1.fp_regfile_reads           12388                       # number of floating regfile reads
system.switch_cpus_1.fp_regfile_writes           8126                       # number of floating regfile writes
system.switch_cpus_1.misc_regfile_reads         13734                       # number of misc regfile reads
system.switch_cpus_1.misc_regfile_writes         2564                       # number of misc regfile writes
system.tol3bus.snoop_filter.tot_requests      5443158                       # Total number of requests made to the snoop filter.
system.tol3bus.snoop_filter.hit_single_requests      2719257                       # Number of requests hitting in the snoop filter with a single holder of the requested data.
system.tol3bus.snoop_filter.hit_multi_requests            0                       # Number of requests hitting in the snoop filter with multiple (>1) holders of the requested data.
system.tol3bus.snoop_filter.tot_snoops            692                       # Total number of snoops made to the snoop filter.
system.tol3bus.snoop_filter.hit_single_snoops          692                       # Number of snoops hitting in the snoop filter with a single holder of the requested data.
system.tol3bus.snoop_filter.hit_multi_snoops            0                       # Number of snoops hitting in the snoop filter with multiple (>1) holders of the requested data.
system.tol3bus.pwrStateResidencyTicks::UNDEFINED 111353024253258                       # Cumulative time (in ticks) in various power states
system.tol3bus.trans_dist::ReadResp            206225                       # Transaction distribution
system.tol3bus.trans_dist::WritebackDirty      2625615                       # Transaction distribution
system.tol3bus.trans_dist::CleanEvict          168491                       # Transaction distribution
system.tol3bus.trans_dist::ReadExReq          2517676                       # Transaction distribution
system.tol3bus.trans_dist::ReadExResp         2517676                       # Transaction distribution
system.tol3bus.trans_dist::ReadSharedReq       206225                       # Transaction distribution
system.tol3bus.pkt_count_system.cpu.l2.mem_side::system.l3.cpu_side      8167059                       # Packet count per connected master and slave (bytes)
system.tol3bus.pkt_size_system.cpu.l2.mem_side::system.l3.cpu_side    337678208                       # Cumulative packet size per connected master and slave (bytes)
system.tol3bus.snoops                           74849                       # Total snoops (count)
system.tol3bus.snoopTraffic                   4690816                       # Total snoop traffic (bytes)
system.tol3bus.snoop_fanout::samples          2798750                       # Request fanout histogram
system.tol3bus.snoop_fanout::mean            0.000247                       # Request fanout histogram
system.tol3bus.snoop_fanout::stdev           0.015722                       # Request fanout histogram
system.tol3bus.snoop_fanout::underflows             0      0.00%      0.00% # Request fanout histogram
system.tol3bus.snoop_fanout::0                2798058     99.98%     99.98% # Request fanout histogram
system.tol3bus.snoop_fanout::1                    692      0.02%    100.00% # Request fanout histogram
system.tol3bus.snoop_fanout::overflows              0      0.00%    100.00% # Request fanout histogram
system.tol3bus.snoop_fanout::min_value              0                       # Request fanout histogram
system.tol3bus.snoop_fanout::max_value              1                       # Request fanout histogram
system.tol3bus.snoop_fanout::total            2798750                       # Request fanout histogram
system.tol3bus.reqLayer0.occupancy         2662494507                       # Layer occupancy (ticks)
system.tol3bus.reqLayer0.utilization              0.3                       # Layer utilization (%)
system.tol3bus.respLayer0.occupancy        1814118066                       # Layer occupancy (ticks)
system.tol3bus.respLayer0.utilization             0.2                       # Layer utilization (%)

---------- End Simulation Statistics   ----------
