
---------- Begin Simulation Statistics ----------
sim_seconds                                  1.025772                       # Number of seconds simulated
sim_ticks                                1025771839362                       # Number of ticks simulated
final_tick                               111351990593619                       # Number of ticks from beginning of simulation (restored from checkpoints and never reset)
sim_freq                                 1000000000000                       # Frequency of simulated ticks
host_inst_rate                                 678170                       # Simulator instruction rate (inst/s)
host_op_rate                                   678170                       # Simulator op (including micro ops) rate (op/s)
host_tick_rate                              579706010                       # Simulator tick rate (ticks/s)
host_mem_usage                                2384916                       # Number of bytes of host memory used
host_seconds                                  1769.47                       # Real time elapsed on the host
sim_insts                                  1200000011                       # Number of instructions simulated
sim_ops                                    1200000011                       # Number of ops (including micro ops) simulated
system.voltage_domain.voltage                       1                       # Voltage in Volts
system.clk_domain.clock                          1000                       # Clock period in ticks
system.mem_ctrls0.pwrStateResidencyTicks::UNDEFINED 111351990593619                       # Cumulative time (in ticks) in various power states
system.mem_ctrls0.bytes_read::cpu.inst            128                       # Number of bytes read from this memory
system.mem_ctrls0.bytes_read::cpu.data            192                       # Number of bytes read from this memory
system.mem_ctrls0.bytes_read::switch_cpus.inst        16768                       # Number of bytes read from this memory
system.mem_ctrls0.bytes_read::switch_cpus.data      2470016                       # Number of bytes read from this memory
system.mem_ctrls0.bytes_read::switch_cpus_1.inst         5312                       # Number of bytes read from this memory
system.mem_ctrls0.bytes_read::switch_cpus_1.data      2459008                       # Number of bytes read from this memory
system.mem_ctrls0.bytes_read::total           4951424                       # Number of bytes read from this memory
system.mem_ctrls0.bytes_inst_read::cpu.inst          128                       # Number of instructions bytes read from this memory
system.mem_ctrls0.bytes_inst_read::switch_cpus.inst        16768                       # Number of instructions bytes read from this memory
system.mem_ctrls0.bytes_inst_read::switch_cpus_1.inst         5312                       # Number of instructions bytes read from this memory
system.mem_ctrls0.bytes_inst_read::total        22208                       # Number of instructions bytes read from this memory
system.mem_ctrls0.bytes_written::writebacks      2784192                       # Number of bytes written to this memory
system.mem_ctrls0.bytes_written::total        2784192                       # Number of bytes written to this memory
system.mem_ctrls0.num_reads::cpu.inst               2                       # Number of read requests responded to by this memory
system.mem_ctrls0.num_reads::cpu.data               3                       # Number of read requests responded to by this memory
system.mem_ctrls0.num_reads::switch_cpus.inst          262                       # Number of read requests responded to by this memory
system.mem_ctrls0.num_reads::switch_cpus.data        38594                       # Number of read requests responded to by this memory
system.mem_ctrls0.num_reads::switch_cpus_1.inst           83                       # Number of read requests responded to by this memory
system.mem_ctrls0.num_reads::switch_cpus_1.data        38422                       # Number of read requests responded to by this memory
system.mem_ctrls0.num_reads::total              77366                       # Number of read requests responded to by this memory
system.mem_ctrls0.num_writes::writebacks        43503                       # Number of write requests responded to by this memory
system.mem_ctrls0.num_writes::total             43503                       # Number of write requests responded to by this memory
system.mem_ctrls0.bw_read::cpu.inst               125                       # Total read bandwidth from this memory (bytes/s)
system.mem_ctrls0.bw_read::cpu.data               187                       # Total read bandwidth from this memory (bytes/s)
system.mem_ctrls0.bw_read::switch_cpus.inst        16347                       # Total read bandwidth from this memory (bytes/s)
system.mem_ctrls0.bw_read::switch_cpus.data      2407958                       # Total read bandwidth from this memory (bytes/s)
system.mem_ctrls0.bw_read::switch_cpus_1.inst         5179                       # Total read bandwidth from this memory (bytes/s)
system.mem_ctrls0.bw_read::switch_cpus_1.data      2397227                       # Total read bandwidth from this memory (bytes/s)
system.mem_ctrls0.bw_read::total              4827023                       # Total read bandwidth from this memory (bytes/s)
system.mem_ctrls0.bw_inst_read::cpu.inst          125                       # Instruction read bandwidth from this memory (bytes/s)
system.mem_ctrls0.bw_inst_read::switch_cpus.inst        16347                       # Instruction read bandwidth from this memory (bytes/s)
system.mem_ctrls0.bw_inst_read::switch_cpus_1.inst         5179                       # Instruction read bandwidth from this memory (bytes/s)
system.mem_ctrls0.bw_inst_read::total           21650                       # Instruction read bandwidth from this memory (bytes/s)
system.mem_ctrls0.bw_write::writebacks        2714241                       # Write bandwidth from this memory (bytes/s)
system.mem_ctrls0.bw_write::total             2714241                       # Write bandwidth from this memory (bytes/s)
system.mem_ctrls0.bw_total::writebacks        2714241                       # Total bandwidth to/from this memory (bytes/s)
system.mem_ctrls0.bw_total::cpu.inst              125                       # Total bandwidth to/from this memory (bytes/s)
system.mem_ctrls0.bw_total::cpu.data              187                       # Total bandwidth to/from this memory (bytes/s)
system.mem_ctrls0.bw_total::switch_cpus.inst        16347                       # Total bandwidth to/from this memory (bytes/s)
system.mem_ctrls0.bw_total::switch_cpus.data      2407958                       # Total bandwidth to/from this memory (bytes/s)
system.mem_ctrls0.bw_total::switch_cpus_1.inst         5179                       # Total bandwidth to/from this memory (bytes/s)
system.mem_ctrls0.bw_total::switch_cpus_1.data      2397227                       # Total bandwidth to/from this memory (bytes/s)
system.mem_ctrls0.bw_total::total             7541264                       # Total bandwidth to/from this memory (bytes/s)
system.mem_ctrls0.readReqs                      77366                       # Number of read requests accepted
system.mem_ctrls0.writeReqs                     43503                       # Number of write requests accepted
system.mem_ctrls0.readBursts                    77366                       # Number of DRAM read bursts, including those serviced by the write queue
system.mem_ctrls0.writeBursts                   43503                       # Number of DRAM write bursts, including those merged in the write queue
system.mem_ctrls0.bytesReadDRAM               4949504                       # Total number of bytes read from DRAM
system.mem_ctrls0.bytesReadWrQ                   1920                       # Total number of bytes read from write queue
system.mem_ctrls0.bytesWritten                2783104                       # Total number of bytes written to DRAM
system.mem_ctrls0.bytesReadSys                4951424                       # Total read bytes from the system interface side
system.mem_ctrls0.bytesWrittenSys             2784192                       # Total written bytes from the system interface side
system.mem_ctrls0.servicedByWrQ                    30                       # Number of DRAM read bursts serviced by the write queue
system.mem_ctrls0.mergedWrBursts                    0                       # Number of DRAM write bursts merged with an existing one
system.mem_ctrls0.neitherReadNorWriteReqs            0                       # Number of requests that are neither read nor write
system.mem_ctrls0.perBankRdBursts::0             4849                       # Per bank write bursts
system.mem_ctrls0.perBankRdBursts::1             4129                       # Per bank write bursts
system.mem_ctrls0.perBankRdBursts::2             4594                       # Per bank write bursts
system.mem_ctrls0.perBankRdBursts::3             5719                       # Per bank write bursts
system.mem_ctrls0.perBankRdBursts::4             5432                       # Per bank write bursts
system.mem_ctrls0.perBankRdBursts::5             4812                       # Per bank write bursts
system.mem_ctrls0.perBankRdBursts::6             4332                       # Per bank write bursts
system.mem_ctrls0.perBankRdBursts::7             5002                       # Per bank write bursts
system.mem_ctrls0.perBankRdBursts::8             4812                       # Per bank write bursts
system.mem_ctrls0.perBankRdBursts::9             4218                       # Per bank write bursts
system.mem_ctrls0.perBankRdBursts::10            5056                       # Per bank write bursts
system.mem_ctrls0.perBankRdBursts::11            5242                       # Per bank write bursts
system.mem_ctrls0.perBankRdBursts::12            5398                       # Per bank write bursts
system.mem_ctrls0.perBankRdBursts::13            4659                       # Per bank write bursts
system.mem_ctrls0.perBankRdBursts::14            4362                       # Per bank write bursts
system.mem_ctrls0.perBankRdBursts::15            4720                       # Per bank write bursts
system.mem_ctrls0.perBankWrBursts::0             2774                       # Per bank write bursts
system.mem_ctrls0.perBankWrBursts::1             1934                       # Per bank write bursts
system.mem_ctrls0.perBankWrBursts::2             2553                       # Per bank write bursts
system.mem_ctrls0.perBankWrBursts::3             3465                       # Per bank write bursts
system.mem_ctrls0.perBankWrBursts::4             3370                       # Per bank write bursts
system.mem_ctrls0.perBankWrBursts::5             2784                       # Per bank write bursts
system.mem_ctrls0.perBankWrBursts::6             2137                       # Per bank write bursts
system.mem_ctrls0.perBankWrBursts::7             2802                       # Per bank write bursts
system.mem_ctrls0.perBankWrBursts::8             2656                       # Per bank write bursts
system.mem_ctrls0.perBankWrBursts::9             2164                       # Per bank write bursts
system.mem_ctrls0.perBankWrBursts::10            2874                       # Per bank write bursts
system.mem_ctrls0.perBankWrBursts::11            3229                       # Per bank write bursts
system.mem_ctrls0.perBankWrBursts::12            3241                       # Per bank write bursts
system.mem_ctrls0.perBankWrBursts::13            2500                       # Per bank write bursts
system.mem_ctrls0.perBankWrBursts::14            2285                       # Per bank write bursts
system.mem_ctrls0.perBankWrBursts::15            2718                       # Per bank write bursts
system.mem_ctrls0.numRdRetry                        0                       # Number of times read queue was full causing retry
system.mem_ctrls0.numWrRetry                        0                       # Number of times write queue was full causing retry
system.mem_ctrls0.totGap                 1025771360841                       # Total gap between requests
system.mem_ctrls0.readPktSize::0                    0                       # Read request sizes (log2)
system.mem_ctrls0.readPktSize::1                    0                       # Read request sizes (log2)
system.mem_ctrls0.readPktSize::2                    0                       # Read request sizes (log2)
system.mem_ctrls0.readPktSize::3                    0                       # Read request sizes (log2)
system.mem_ctrls0.readPktSize::4                    0                       # Read request sizes (log2)
system.mem_ctrls0.readPktSize::5                    0                       # Read request sizes (log2)
system.mem_ctrls0.readPktSize::6                77366                       # Read request sizes (log2)
system.mem_ctrls0.writePktSize::0                   0                       # Write request sizes (log2)
system.mem_ctrls0.writePktSize::1                   0                       # Write request sizes (log2)
system.mem_ctrls0.writePktSize::2                   0                       # Write request sizes (log2)
system.mem_ctrls0.writePktSize::3                   0                       # Write request sizes (log2)
system.mem_ctrls0.writePktSize::4                   0                       # Write request sizes (log2)
system.mem_ctrls0.writePktSize::5                   0                       # Write request sizes (log2)
system.mem_ctrls0.writePktSize::6               43503                       # Write request sizes (log2)
system.mem_ctrls0.rdQLenPdf::0                  69989                       # What read queue length does an incoming req see
system.mem_ctrls0.rdQLenPdf::1                   6892                       # What read queue length does an incoming req see
system.mem_ctrls0.rdQLenPdf::2                    453                       # What read queue length does an incoming req see
system.mem_ctrls0.rdQLenPdf::3                      1                       # What read queue length does an incoming req see
system.mem_ctrls0.rdQLenPdf::4                      1                       # What read queue length does an incoming req see
system.mem_ctrls0.rdQLenPdf::5                      0                       # What read queue length does an incoming req see
system.mem_ctrls0.rdQLenPdf::6                      0                       # What read queue length does an incoming req see
system.mem_ctrls0.rdQLenPdf::7                      0                       # What read queue length does an incoming req see
system.mem_ctrls0.rdQLenPdf::8                      0                       # What read queue length does an incoming req see
system.mem_ctrls0.rdQLenPdf::9                      0                       # What read queue length does an incoming req see
system.mem_ctrls0.rdQLenPdf::10                     0                       # What read queue length does an incoming req see
system.mem_ctrls0.rdQLenPdf::11                     0                       # What read queue length does an incoming req see
system.mem_ctrls0.rdQLenPdf::12                     0                       # What read queue length does an incoming req see
system.mem_ctrls0.rdQLenPdf::13                     0                       # What read queue length does an incoming req see
system.mem_ctrls0.rdQLenPdf::14                     0                       # What read queue length does an incoming req see
system.mem_ctrls0.rdQLenPdf::15                     0                       # What read queue length does an incoming req see
system.mem_ctrls0.rdQLenPdf::16                     0                       # What read queue length does an incoming req see
system.mem_ctrls0.rdQLenPdf::17                     0                       # What read queue length does an incoming req see
system.mem_ctrls0.rdQLenPdf::18                     0                       # What read queue length does an incoming req see
system.mem_ctrls0.rdQLenPdf::19                     0                       # What read queue length does an incoming req see
system.mem_ctrls0.rdQLenPdf::20                     0                       # What read queue length does an incoming req see
system.mem_ctrls0.rdQLenPdf::21                     0                       # What read queue length does an incoming req see
system.mem_ctrls0.rdQLenPdf::22                     0                       # What read queue length does an incoming req see
system.mem_ctrls0.rdQLenPdf::23                     0                       # What read queue length does an incoming req see
system.mem_ctrls0.rdQLenPdf::24                     0                       # What read queue length does an incoming req see
system.mem_ctrls0.rdQLenPdf::25                     0                       # What read queue length does an incoming req see
system.mem_ctrls0.rdQLenPdf::26                     0                       # What read queue length does an incoming req see
system.mem_ctrls0.rdQLenPdf::27                     0                       # What read queue length does an incoming req see
system.mem_ctrls0.rdQLenPdf::28                     0                       # What read queue length does an incoming req see
system.mem_ctrls0.rdQLenPdf::29                     0                       # What read queue length does an incoming req see
system.mem_ctrls0.rdQLenPdf::30                     0                       # What read queue length does an incoming req see
system.mem_ctrls0.rdQLenPdf::31                     0                       # What read queue length does an incoming req see
system.mem_ctrls0.wrQLenPdf::0                      2                       # What write queue length does an incoming req see
system.mem_ctrls0.wrQLenPdf::1                      2                       # What write queue length does an incoming req see
system.mem_ctrls0.wrQLenPdf::2                      2                       # What write queue length does an incoming req see
system.mem_ctrls0.wrQLenPdf::3                      2                       # What write queue length does an incoming req see
system.mem_ctrls0.wrQLenPdf::4                      2                       # What write queue length does an incoming req see
system.mem_ctrls0.wrQLenPdf::5                      2                       # What write queue length does an incoming req see
system.mem_ctrls0.wrQLenPdf::6                      2                       # What write queue length does an incoming req see
system.mem_ctrls0.wrQLenPdf::7                      2                       # What write queue length does an incoming req see
system.mem_ctrls0.wrQLenPdf::8                      2                       # What write queue length does an incoming req see
system.mem_ctrls0.wrQLenPdf::9                      2                       # What write queue length does an incoming req see
system.mem_ctrls0.wrQLenPdf::10                     2                       # What write queue length does an incoming req see
system.mem_ctrls0.wrQLenPdf::11                     2                       # What write queue length does an incoming req see
system.mem_ctrls0.wrQLenPdf::12                     2                       # What write queue length does an incoming req see
system.mem_ctrls0.wrQLenPdf::13                     2                       # What write queue length does an incoming req see
system.mem_ctrls0.wrQLenPdf::14                     2                       # What write queue length does an incoming req see
system.mem_ctrls0.wrQLenPdf::15                  2123                       # What write queue length does an incoming req see
system.mem_ctrls0.wrQLenPdf::16                  2204                       # What write queue length does an incoming req see
system.mem_ctrls0.wrQLenPdf::17                  2401                       # What write queue length does an incoming req see
system.mem_ctrls0.wrQLenPdf::18                  2446                       # What write queue length does an incoming req see
system.mem_ctrls0.wrQLenPdf::19                  2454                       # What write queue length does an incoming req see
system.mem_ctrls0.wrQLenPdf::20                  2432                       # What write queue length does an incoming req see
system.mem_ctrls0.wrQLenPdf::21                  2440                       # What write queue length does an incoming req see
system.mem_ctrls0.wrQLenPdf::22                  2448                       # What write queue length does an incoming req see
system.mem_ctrls0.wrQLenPdf::23                  2459                       # What write queue length does an incoming req see
system.mem_ctrls0.wrQLenPdf::24                  2466                       # What write queue length does an incoming req see
system.mem_ctrls0.wrQLenPdf::25                  2482                       # What write queue length does an incoming req see
system.mem_ctrls0.wrQLenPdf::26                  2457                       # What write queue length does an incoming req see
system.mem_ctrls0.wrQLenPdf::27                  2434                       # What write queue length does an incoming req see
system.mem_ctrls0.wrQLenPdf::28                  2437                       # What write queue length does an incoming req see
system.mem_ctrls0.wrQLenPdf::29                  2452                       # What write queue length does an incoming req see
system.mem_ctrls0.wrQLenPdf::30                  2475                       # What write queue length does an incoming req see
system.mem_ctrls0.wrQLenPdf::31                  2402                       # What write queue length does an incoming req see
system.mem_ctrls0.wrQLenPdf::32                  2401                       # What write queue length does an incoming req see
system.mem_ctrls0.wrQLenPdf::33                    35                       # What write queue length does an incoming req see
system.mem_ctrls0.wrQLenPdf::34                    17                       # What write queue length does an incoming req see
system.mem_ctrls0.wrQLenPdf::35                     5                       # What write queue length does an incoming req see
system.mem_ctrls0.wrQLenPdf::36                     3                       # What write queue length does an incoming req see
system.mem_ctrls0.wrQLenPdf::37                     0                       # What write queue length does an incoming req see
system.mem_ctrls0.wrQLenPdf::38                     0                       # What write queue length does an incoming req see
system.mem_ctrls0.wrQLenPdf::39                     0                       # What write queue length does an incoming req see
system.mem_ctrls0.wrQLenPdf::40                     0                       # What write queue length does an incoming req see
system.mem_ctrls0.wrQLenPdf::41                     0                       # What write queue length does an incoming req see
system.mem_ctrls0.wrQLenPdf::42                     0                       # What write queue length does an incoming req see
system.mem_ctrls0.wrQLenPdf::43                     0                       # What write queue length does an incoming req see
system.mem_ctrls0.wrQLenPdf::44                     0                       # What write queue length does an incoming req see
system.mem_ctrls0.wrQLenPdf::45                     0                       # What write queue length does an incoming req see
system.mem_ctrls0.wrQLenPdf::46                     0                       # What write queue length does an incoming req see
system.mem_ctrls0.wrQLenPdf::47                     0                       # What write queue length does an incoming req see
system.mem_ctrls0.wrQLenPdf::48                     0                       # What write queue length does an incoming req see
system.mem_ctrls0.wrQLenPdf::49                     0                       # What write queue length does an incoming req see
system.mem_ctrls0.wrQLenPdf::50                     0                       # What write queue length does an incoming req see
system.mem_ctrls0.wrQLenPdf::51                     0                       # What write queue length does an incoming req see
system.mem_ctrls0.wrQLenPdf::52                     0                       # What write queue length does an incoming req see
system.mem_ctrls0.wrQLenPdf::53                     0                       # What write queue length does an incoming req see
system.mem_ctrls0.wrQLenPdf::54                     0                       # What write queue length does an incoming req see
system.mem_ctrls0.wrQLenPdf::55                     0                       # What write queue length does an incoming req see
system.mem_ctrls0.wrQLenPdf::56                     0                       # What write queue length does an incoming req see
system.mem_ctrls0.wrQLenPdf::57                     0                       # What write queue length does an incoming req see
system.mem_ctrls0.wrQLenPdf::58                     0                       # What write queue length does an incoming req see
system.mem_ctrls0.wrQLenPdf::59                     0                       # What write queue length does an incoming req see
system.mem_ctrls0.wrQLenPdf::60                     0                       # What write queue length does an incoming req see
system.mem_ctrls0.wrQLenPdf::61                     0                       # What write queue length does an incoming req see
system.mem_ctrls0.wrQLenPdf::62                     0                       # What write queue length does an incoming req see
system.mem_ctrls0.wrQLenPdf::63                     0                       # What write queue length does an incoming req see
system.mem_ctrls0.bytesPerActivate::samples        49157                       # Bytes accessed per row activation
system.mem_ctrls0.bytesPerActivate::mean   157.304311                       # Bytes accessed per row activation
system.mem_ctrls0.bytesPerActivate::gmean   123.910733                       # Bytes accessed per row activation
system.mem_ctrls0.bytesPerActivate::stdev   141.147849                       # Bytes accessed per row activation
system.mem_ctrls0.bytesPerActivate::0-127        18157     36.94%     36.94% # Bytes accessed per row activation
system.mem_ctrls0.bytesPerActivate::128-255        24374     49.58%     86.52% # Bytes accessed per row activation
system.mem_ctrls0.bytesPerActivate::256-383         3051      6.21%     92.73% # Bytes accessed per row activation
system.mem_ctrls0.bytesPerActivate::384-511         1487      3.03%     95.75% # Bytes accessed per row activation
system.mem_ctrls0.bytesPerActivate::512-639          828      1.68%     97.44% # Bytes accessed per row activation
system.mem_ctrls0.bytesPerActivate::640-767          515      1.05%     98.48% # Bytes accessed per row activation
system.mem_ctrls0.bytesPerActivate::768-895          373      0.76%     99.24% # Bytes accessed per row activation
system.mem_ctrls0.bytesPerActivate::896-1023          230      0.47%     99.71% # Bytes accessed per row activation
system.mem_ctrls0.bytesPerActivate::1024-1151          142      0.29%    100.00% # Bytes accessed per row activation
system.mem_ctrls0.bytesPerActivate::total        49157                       # Bytes accessed per row activation
system.mem_ctrls0.rdPerTurnAround::samples         2402                       # Reads before turning the bus around for writes
system.mem_ctrls0.rdPerTurnAround::mean     32.196503                       # Reads before turning the bus around for writes
system.mem_ctrls0.rdPerTurnAround::stdev   652.467431                       # Reads before turning the bus around for writes
system.mem_ctrls0.rdPerTurnAround::0-1023         2401     99.96%     99.96% # Reads before turning the bus around for writes
system.mem_ctrls0.rdPerTurnAround::31744-32767            1      0.04%    100.00% # Reads before turning the bus around for writes
system.mem_ctrls0.rdPerTurnAround::total         2402                       # Reads before turning the bus around for writes
system.mem_ctrls0.wrPerTurnAround::samples         2402                       # Writes before turning the bus around for reads
system.mem_ctrls0.wrPerTurnAround::mean     18.104080                       # Writes before turning the bus around for reads
system.mem_ctrls0.wrPerTurnAround::gmean    18.079867                       # Writes before turning the bus around for reads
system.mem_ctrls0.wrPerTurnAround::stdev     0.936105                       # Writes before turning the bus around for reads
system.mem_ctrls0.wrPerTurnAround::16             212      8.83%      8.83% # Writes before turning the bus around for reads
system.mem_ctrls0.wrPerTurnAround::17              59      2.46%     11.28% # Writes before turning the bus around for reads
system.mem_ctrls0.wrPerTurnAround::18            1576     65.61%     76.89% # Writes before turning the bus around for reads
system.mem_ctrls0.wrPerTurnAround::19             421     17.53%     94.42% # Writes before turning the bus around for reads
system.mem_ctrls0.wrPerTurnAround::20             107      4.45%     98.88% # Writes before turning the bus around for reads
system.mem_ctrls0.wrPerTurnAround::21              15      0.62%     99.50% # Writes before turning the bus around for reads
system.mem_ctrls0.wrPerTurnAround::22               8      0.33%     99.83% # Writes before turning the bus around for reads
system.mem_ctrls0.wrPerTurnAround::23               3      0.12%     99.96% # Writes before turning the bus around for reads
system.mem_ctrls0.wrPerTurnAround::24               1      0.04%    100.00% # Writes before turning the bus around for reads
system.mem_ctrls0.wrPerTurnAround::total         2402                       # Writes before turning the bus around for reads
system.mem_ctrls0.totQLat                  1413570830                       # Total ticks spent queuing
system.mem_ctrls0.totMemAccLat             2863620830                       # Total ticks spent from burst creation until serviced by the DRAM
system.mem_ctrls0.totBusLat                 386680000                       # Total ticks spent in databus transfers
system.mem_ctrls0.avgQLat                    18278.30                       # Average queueing delay per DRAM burst
system.mem_ctrls0.avgBusLat                   5000.00                       # Average bus latency per DRAM burst
system.mem_ctrls0.avgMemAccLat               37028.30                       # Average memory access latency per DRAM burst
system.mem_ctrls0.avgRdBW                        4.83                       # Average DRAM read bandwidth in MiByte/s
system.mem_ctrls0.avgWrBW                        2.71                       # Average achieved write bandwidth in MiByte/s
system.mem_ctrls0.avgRdBWSys                     4.83                       # Average system read bandwidth in MiByte/s
system.mem_ctrls0.avgWrBWSys                     2.71                       # Average system write bandwidth in MiByte/s
system.mem_ctrls0.peakBW                     12800.00                       # Theoretical peak bandwidth in MiByte/s
system.mem_ctrls0.busUtil                        0.06                       # Data bus utilization in percentage
system.mem_ctrls0.busUtilRead                    0.04                       # Data bus utilization in percentage for reads
system.mem_ctrls0.busUtilWrite                   0.02                       # Data bus utilization in percentage for writes
system.mem_ctrls0.avgRdQLen                      1.00                       # Average read queue length when enqueuing
system.mem_ctrls0.avgWrQLen                      0.81                       # Average write queue length when enqueuing
system.mem_ctrls0.readRowHits                   52044                       # Number of row buffer hits during reads
system.mem_ctrls0.writeRowHits                  19621                       # Number of row buffer hits during writes
system.mem_ctrls0.readRowHitRate                67.30                       # Row buffer hit rate for reads
system.mem_ctrls0.writeRowHitRate               45.10                       # Row buffer hit rate for writes
system.mem_ctrls0.avgGap                   8486637.28                       # Average gap between requests
system.mem_ctrls0.pageHitRate                   59.31                       # Row buffer hit rate, read and write combined
system.mem_ctrls0_0.actEnergy               175158480                       # Energy for activate commands per rank (pJ)
system.mem_ctrls0_0.preEnergy                93098940                       # Energy for precharge commands per rank (pJ)
system.mem_ctrls0_0.readEnergy              277524660                       # Energy for read commands per rank (pJ)
system.mem_ctrls0_0.writeEnergy             113895180                       # Energy for write commands per rank (pJ)
system.mem_ctrls0_0.refreshEnergy        4783743120.000001                       # Energy for refresh commands per rank (pJ)
system.mem_ctrls0_0.actBackEnergy          2400324150                       # Energy for active background per rank (pJ)
system.mem_ctrls0_0.preBackEnergy           127200960                       # Energy for precharge background per rank (pJ)
system.mem_ctrls0_0.actPowerDownEnergy    18758950230                       # Energy for active power-down per rank (pJ)
system.mem_ctrls0_0.prePowerDownEnergy     4542145440                       # Energy for precharge power-down per rank (pJ)
system.mem_ctrls0_0.selfRefreshEnergy    232285940895                       # Energy for self refresh per rank (pJ)
system.mem_ctrls0_0.totalEnergy          263558732115                       # Total energy per rank (pJ)
system.mem_ctrls0_0.averagePower           256.936993                       # Core power per rank (mW)
system.mem_ctrls0_0.totalIdleTime        1020161270480                       # Total Idle time Per DRAM Rank
system.mem_ctrls0_0.memoryStateTime::IDLE    120457051                       # Time in different power states
system.mem_ctrls0_0.memoryStateTime::REF   2025314000                       # Time in different power states
system.mem_ctrls0_0.memoryStateTime::SREF 967208509862                       # Time in different power states
system.mem_ctrls0_0.memoryStateTime::PRE_PDN  11827313324                       # Time in different power states
system.mem_ctrls0_0.memoryStateTime::ACT   3452703895                       # Time in different power states
system.mem_ctrls0_0.memoryStateTime::ACT_PDN  41137541230                       # Time in different power states
system.mem_ctrls0_1.actEnergy               175822500                       # Energy for activate commands per rank (pJ)
system.mem_ctrls0_1.preEnergy                93451875                       # Energy for precharge commands per rank (pJ)
system.mem_ctrls0_1.readEnergy              274654380                       # Energy for read commands per rank (pJ)
system.mem_ctrls0_1.writeEnergy             113101740                       # Energy for write commands per rank (pJ)
system.mem_ctrls0_1.refreshEnergy        4670034720.000001                       # Energy for refresh commands per rank (pJ)
system.mem_ctrls0_1.actBackEnergy          2500106640                       # Energy for active background per rank (pJ)
system.mem_ctrls0_1.preBackEnergy           118932000                       # Energy for precharge background per rank (pJ)
system.mem_ctrls0_1.actPowerDownEnergy    18402135930                       # Energy for active power-down per rank (pJ)
system.mem_ctrls0_1.prePowerDownEnergy     4406257920                       # Energy for precharge power-down per rank (pJ)
system.mem_ctrls0_1.selfRefreshEnergy    232473009000                       # Energy for self refresh per rank (pJ)
system.mem_ctrls0_1.totalEnergy          263227750665                       # Total energy per rank (pJ)
system.mem_ctrls0_1.averagePower           256.614328                       # Core power per rank (mW)
system.mem_ctrls0_1.totalIdleTime        1019964962902                       # Total Idle time Per DRAM Rank
system.mem_ctrls0_1.memoryStateTime::IDLE    101316968                       # Time in different power states
system.mem_ctrls0_1.memoryStateTime::REF   1976800000                       # Time in different power states
system.mem_ctrls0_1.memoryStateTime::SREF 968148698862                       # Time in different power states
system.mem_ctrls0_1.memoryStateTime::PRE_PDN  11473821201                       # Time in different power states
system.mem_ctrls0_1.memoryStateTime::ACT   3716665556                       # Time in different power states
system.mem_ctrls0_1.memoryStateTime::ACT_PDN  40354536775                       # Time in different power states
system.mem_ctrls1.pwrStateResidencyTicks::UNDEFINED 111351990593619                       # Cumulative time (in ticks) in various power states
system.mem_ctrls1.bytes_read::cpu.inst             64                       # Number of bytes read from this memory
system.mem_ctrls1.bytes_read::cpu.data             64                       # Number of bytes read from this memory
system.mem_ctrls1.bytes_read::switch_cpus.inst        16832                       # Number of bytes read from this memory
system.mem_ctrls1.bytes_read::switch_cpus.data      2466112                       # Number of bytes read from this memory
system.mem_ctrls1.bytes_read::switch_cpus_1.inst         5056                       # Number of bytes read from this memory
system.mem_ctrls1.bytes_read::switch_cpus_1.data      2461056                       # Number of bytes read from this memory
system.mem_ctrls1.bytes_read::total           4949184                       # Number of bytes read from this memory
system.mem_ctrls1.bytes_inst_read::cpu.inst           64                       # Number of instructions bytes read from this memory
system.mem_ctrls1.bytes_inst_read::switch_cpus.inst        16832                       # Number of instructions bytes read from this memory
system.mem_ctrls1.bytes_inst_read::switch_cpus_1.inst         5056                       # Number of instructions bytes read from this memory
system.mem_ctrls1.bytes_inst_read::total        21952                       # Number of instructions bytes read from this memory
system.mem_ctrls1.bytes_written::writebacks      2786560                       # Number of bytes written to this memory
system.mem_ctrls1.bytes_written::total        2786560                       # Number of bytes written to this memory
system.mem_ctrls1.num_reads::cpu.inst               1                       # Number of read requests responded to by this memory
system.mem_ctrls1.num_reads::cpu.data               1                       # Number of read requests responded to by this memory
system.mem_ctrls1.num_reads::switch_cpus.inst          263                       # Number of read requests responded to by this memory
system.mem_ctrls1.num_reads::switch_cpus.data        38533                       # Number of read requests responded to by this memory
system.mem_ctrls1.num_reads::switch_cpus_1.inst           79                       # Number of read requests responded to by this memory
system.mem_ctrls1.num_reads::switch_cpus_1.data        38454                       # Number of read requests responded to by this memory
system.mem_ctrls1.num_reads::total              77331                       # Number of read requests responded to by this memory
system.mem_ctrls1.num_writes::writebacks        43540                       # Number of write requests responded to by this memory
system.mem_ctrls1.num_writes::total             43540                       # Number of write requests responded to by this memory
system.mem_ctrls1.bw_read::cpu.inst                62                       # Total read bandwidth from this memory (bytes/s)
system.mem_ctrls1.bw_read::cpu.data                62                       # Total read bandwidth from this memory (bytes/s)
system.mem_ctrls1.bw_read::switch_cpus.inst        16409                       # Total read bandwidth from this memory (bytes/s)
system.mem_ctrls1.bw_read::switch_cpus.data      2404153                       # Total read bandwidth from this memory (bytes/s)
system.mem_ctrls1.bw_read::switch_cpus_1.inst         4929                       # Total read bandwidth from this memory (bytes/s)
system.mem_ctrls1.bw_read::switch_cpus_1.data      2399224                       # Total read bandwidth from this memory (bytes/s)
system.mem_ctrls1.bw_read::total              4824839                       # Total read bandwidth from this memory (bytes/s)
system.mem_ctrls1.bw_inst_read::cpu.inst           62                       # Instruction read bandwidth from this memory (bytes/s)
system.mem_ctrls1.bw_inst_read::switch_cpus.inst        16409                       # Instruction read bandwidth from this memory (bytes/s)
system.mem_ctrls1.bw_inst_read::switch_cpus_1.inst         4929                       # Instruction read bandwidth from this memory (bytes/s)
system.mem_ctrls1.bw_inst_read::total           21400                       # Instruction read bandwidth from this memory (bytes/s)
system.mem_ctrls1.bw_write::writebacks        2716550                       # Write bandwidth from this memory (bytes/s)
system.mem_ctrls1.bw_write::total             2716550                       # Write bandwidth from this memory (bytes/s)
system.mem_ctrls1.bw_total::writebacks        2716550                       # Total bandwidth to/from this memory (bytes/s)
system.mem_ctrls1.bw_total::cpu.inst               62                       # Total bandwidth to/from this memory (bytes/s)
system.mem_ctrls1.bw_total::cpu.data               62                       # Total bandwidth to/from this memory (bytes/s)
system.mem_ctrls1.bw_total::switch_cpus.inst        16409                       # Total bandwidth to/from this memory (bytes/s)
system.mem_ctrls1.bw_total::switch_cpus.data      2404153                       # Total bandwidth to/from this memory (bytes/s)
system.mem_ctrls1.bw_total::switch_cpus_1.inst         4929                       # Total bandwidth to/from this memory (bytes/s)
system.mem_ctrls1.bw_total::switch_cpus_1.data      2399224                       # Total bandwidth to/from this memory (bytes/s)
system.mem_ctrls1.bw_total::total             7541389                       # Total bandwidth to/from this memory (bytes/s)
system.mem_ctrls1.readReqs                      77331                       # Number of read requests accepted
system.mem_ctrls1.writeReqs                     43540                       # Number of write requests accepted
system.mem_ctrls1.readBursts                    77331                       # Number of DRAM read bursts, including those serviced by the write queue
system.mem_ctrls1.writeBursts                   43540                       # Number of DRAM write bursts, including those merged in the write queue
system.mem_ctrls1.bytesReadDRAM               4946752                       # Total number of bytes read from DRAM
system.mem_ctrls1.bytesReadWrQ                   2432                       # Total number of bytes read from write queue
system.mem_ctrls1.bytesWritten                2785280                       # Total number of bytes written to DRAM
system.mem_ctrls1.bytesReadSys                4949184                       # Total read bytes from the system interface side
system.mem_ctrls1.bytesWrittenSys             2786560                       # Total written bytes from the system interface side
system.mem_ctrls1.servicedByWrQ                    38                       # Number of DRAM read bursts serviced by the write queue
system.mem_ctrls1.mergedWrBursts                    0                       # Number of DRAM write bursts merged with an existing one
system.mem_ctrls1.neitherReadNorWriteReqs            0                       # Number of requests that are neither read nor write
system.mem_ctrls1.perBankRdBursts::0             4844                       # Per bank write bursts
system.mem_ctrls1.perBankRdBursts::1             4136                       # Per bank write bursts
system.mem_ctrls1.perBankRdBursts::2             4571                       # Per bank write bursts
system.mem_ctrls1.perBankRdBursts::3             5636                       # Per bank write bursts
system.mem_ctrls1.perBankRdBursts::4             5475                       # Per bank write bursts
system.mem_ctrls1.perBankRdBursts::5             4788                       # Per bank write bursts
system.mem_ctrls1.perBankRdBursts::6             4378                       # Per bank write bursts
system.mem_ctrls1.perBankRdBursts::7             4964                       # Per bank write bursts
system.mem_ctrls1.perBankRdBursts::8             4819                       # Per bank write bursts
system.mem_ctrls1.perBankRdBursts::9             4234                       # Per bank write bursts
system.mem_ctrls1.perBankRdBursts::10            5011                       # Per bank write bursts
system.mem_ctrls1.perBankRdBursts::11            5297                       # Per bank write bursts
system.mem_ctrls1.perBankRdBursts::12            5413                       # Per bank write bursts
system.mem_ctrls1.perBankRdBursts::13            4646                       # Per bank write bursts
system.mem_ctrls1.perBankRdBursts::14            4381                       # Per bank write bursts
system.mem_ctrls1.perBankRdBursts::15            4700                       # Per bank write bursts
system.mem_ctrls1.perBankWrBursts::0             2742                       # Per bank write bursts
system.mem_ctrls1.perBankWrBursts::1             1962                       # Per bank write bursts
system.mem_ctrls1.perBankWrBursts::2             2540                       # Per bank write bursts
system.mem_ctrls1.perBankWrBursts::3             3393                       # Per bank write bursts
system.mem_ctrls1.perBankWrBursts::4             3436                       # Per bank write bursts
system.mem_ctrls1.perBankWrBursts::5             2765                       # Per bank write bursts
system.mem_ctrls1.perBankWrBursts::6             2195                       # Per bank write bursts
system.mem_ctrls1.perBankWrBursts::7             2801                       # Per bank write bursts
system.mem_ctrls1.perBankWrBursts::8             2664                       # Per bank write bursts
system.mem_ctrls1.perBankWrBursts::9             2174                       # Per bank write bursts
system.mem_ctrls1.perBankWrBursts::10            2821                       # Per bank write bursts
system.mem_ctrls1.perBankWrBursts::11            3289                       # Per bank write bursts
system.mem_ctrls1.perBankWrBursts::12            3254                       # Per bank write bursts
system.mem_ctrls1.perBankWrBursts::13            2495                       # Per bank write bursts
system.mem_ctrls1.perBankWrBursts::14            2299                       # Per bank write bursts
system.mem_ctrls1.perBankWrBursts::15            2690                       # Per bank write bursts
system.mem_ctrls1.numRdRetry                        0                       # Number of times read queue was full causing retry
system.mem_ctrls1.numWrRetry                        0                       # Number of times write queue was full causing retry
system.mem_ctrls1.totGap                 1025765519688                       # Total gap between requests
system.mem_ctrls1.readPktSize::0                    0                       # Read request sizes (log2)
system.mem_ctrls1.readPktSize::1                    0                       # Read request sizes (log2)
system.mem_ctrls1.readPktSize::2                    0                       # Read request sizes (log2)
system.mem_ctrls1.readPktSize::3                    0                       # Read request sizes (log2)
system.mem_ctrls1.readPktSize::4                    0                       # Read request sizes (log2)
system.mem_ctrls1.readPktSize::5                    0                       # Read request sizes (log2)
system.mem_ctrls1.readPktSize::6                77331                       # Read request sizes (log2)
system.mem_ctrls1.writePktSize::0                   0                       # Write request sizes (log2)
system.mem_ctrls1.writePktSize::1                   0                       # Write request sizes (log2)
system.mem_ctrls1.writePktSize::2                   0                       # Write request sizes (log2)
system.mem_ctrls1.writePktSize::3                   0                       # Write request sizes (log2)
system.mem_ctrls1.writePktSize::4                   0                       # Write request sizes (log2)
system.mem_ctrls1.writePktSize::5                   0                       # Write request sizes (log2)
system.mem_ctrls1.writePktSize::6               43540                       # Write request sizes (log2)
system.mem_ctrls1.rdQLenPdf::0                  69961                       # What read queue length does an incoming req see
system.mem_ctrls1.rdQLenPdf::1                   6900                       # What read queue length does an incoming req see
system.mem_ctrls1.rdQLenPdf::2                    431                       # What read queue length does an incoming req see
system.mem_ctrls1.rdQLenPdf::3                      1                       # What read queue length does an incoming req see
system.mem_ctrls1.rdQLenPdf::4                      0                       # What read queue length does an incoming req see
system.mem_ctrls1.rdQLenPdf::5                      0                       # What read queue length does an incoming req see
system.mem_ctrls1.rdQLenPdf::6                      0                       # What read queue length does an incoming req see
system.mem_ctrls1.rdQLenPdf::7                      0                       # What read queue length does an incoming req see
system.mem_ctrls1.rdQLenPdf::8                      0                       # What read queue length does an incoming req see
system.mem_ctrls1.rdQLenPdf::9                      0                       # What read queue length does an incoming req see
system.mem_ctrls1.rdQLenPdf::10                     0                       # What read queue length does an incoming req see
system.mem_ctrls1.rdQLenPdf::11                     0                       # What read queue length does an incoming req see
system.mem_ctrls1.rdQLenPdf::12                     0                       # What read queue length does an incoming req see
system.mem_ctrls1.rdQLenPdf::13                     0                       # What read queue length does an incoming req see
system.mem_ctrls1.rdQLenPdf::14                     0                       # What read queue length does an incoming req see
system.mem_ctrls1.rdQLenPdf::15                     0                       # What read queue length does an incoming req see
system.mem_ctrls1.rdQLenPdf::16                     0                       # What read queue length does an incoming req see
system.mem_ctrls1.rdQLenPdf::17                     0                       # What read queue length does an incoming req see
system.mem_ctrls1.rdQLenPdf::18                     0                       # What read queue length does an incoming req see
system.mem_ctrls1.rdQLenPdf::19                     0                       # What read queue length does an incoming req see
system.mem_ctrls1.rdQLenPdf::20                     0                       # What read queue length does an incoming req see
system.mem_ctrls1.rdQLenPdf::21                     0                       # What read queue length does an incoming req see
system.mem_ctrls1.rdQLenPdf::22                     0                       # What read queue length does an incoming req see
system.mem_ctrls1.rdQLenPdf::23                     0                       # What read queue length does an incoming req see
system.mem_ctrls1.rdQLenPdf::24                     0                       # What read queue length does an incoming req see
system.mem_ctrls1.rdQLenPdf::25                     0                       # What read queue length does an incoming req see
system.mem_ctrls1.rdQLenPdf::26                     0                       # What read queue length does an incoming req see
system.mem_ctrls1.rdQLenPdf::27                     0                       # What read queue length does an incoming req see
system.mem_ctrls1.rdQLenPdf::28                     0                       # What read queue length does an incoming req see
system.mem_ctrls1.rdQLenPdf::29                     0                       # What read queue length does an incoming req see
system.mem_ctrls1.rdQLenPdf::30                     0                       # What read queue length does an incoming req see
system.mem_ctrls1.rdQLenPdf::31                     0                       # What read queue length does an incoming req see
system.mem_ctrls1.wrQLenPdf::0                      2                       # What write queue length does an incoming req see
system.mem_ctrls1.wrQLenPdf::1                      2                       # What write queue length does an incoming req see
system.mem_ctrls1.wrQLenPdf::2                      2                       # What write queue length does an incoming req see
system.mem_ctrls1.wrQLenPdf::3                      2                       # What write queue length does an incoming req see
system.mem_ctrls1.wrQLenPdf::4                      2                       # What write queue length does an incoming req see
system.mem_ctrls1.wrQLenPdf::5                      2                       # What write queue length does an incoming req see
system.mem_ctrls1.wrQLenPdf::6                      2                       # What write queue length does an incoming req see
system.mem_ctrls1.wrQLenPdf::7                      2                       # What write queue length does an incoming req see
system.mem_ctrls1.wrQLenPdf::8                      2                       # What write queue length does an incoming req see
system.mem_ctrls1.wrQLenPdf::9                      2                       # What write queue length does an incoming req see
system.mem_ctrls1.wrQLenPdf::10                     2                       # What write queue length does an incoming req see
system.mem_ctrls1.wrQLenPdf::11                     2                       # What write queue length does an incoming req see
system.mem_ctrls1.wrQLenPdf::12                     2                       # What write queue length does an incoming req see
system.mem_ctrls1.wrQLenPdf::13                     2                       # What write queue length does an incoming req see
system.mem_ctrls1.wrQLenPdf::14                     2                       # What write queue length does an incoming req see
system.mem_ctrls1.wrQLenPdf::15                  2118                       # What write queue length does an incoming req see
system.mem_ctrls1.wrQLenPdf::16                  2227                       # What write queue length does an incoming req see
system.mem_ctrls1.wrQLenPdf::17                  2403                       # What write queue length does an incoming req see
system.mem_ctrls1.wrQLenPdf::18                  2444                       # What write queue length does an incoming req see
system.mem_ctrls1.wrQLenPdf::19                  2442                       # What write queue length does an incoming req see
system.mem_ctrls1.wrQLenPdf::20                  2439                       # What write queue length does an incoming req see
system.mem_ctrls1.wrQLenPdf::21                  2441                       # What write queue length does an incoming req see
system.mem_ctrls1.wrQLenPdf::22                  2453                       # What write queue length does an incoming req see
system.mem_ctrls1.wrQLenPdf::23                  2461                       # What write queue length does an incoming req see
system.mem_ctrls1.wrQLenPdf::24                  2453                       # What write queue length does an incoming req see
system.mem_ctrls1.wrQLenPdf::25                  2478                       # What write queue length does an incoming req see
system.mem_ctrls1.wrQLenPdf::26                  2462                       # What write queue length does an incoming req see
system.mem_ctrls1.wrQLenPdf::27                  2442                       # What write queue length does an incoming req see
system.mem_ctrls1.wrQLenPdf::28                  2457                       # What write queue length does an incoming req see
system.mem_ctrls1.wrQLenPdf::29                  2451                       # What write queue length does an incoming req see
system.mem_ctrls1.wrQLenPdf::30                  2481                       # What write queue length does an incoming req see
system.mem_ctrls1.wrQLenPdf::31                  2406                       # What write queue length does an incoming req see
system.mem_ctrls1.wrQLenPdf::32                  2405                       # What write queue length does an incoming req see
system.mem_ctrls1.wrQLenPdf::33                    29                       # What write queue length does an incoming req see
system.mem_ctrls1.wrQLenPdf::34                    10                       # What write queue length does an incoming req see
system.mem_ctrls1.wrQLenPdf::35                     5                       # What write queue length does an incoming req see
system.mem_ctrls1.wrQLenPdf::36                     3                       # What write queue length does an incoming req see
system.mem_ctrls1.wrQLenPdf::37                     0                       # What write queue length does an incoming req see
system.mem_ctrls1.wrQLenPdf::38                     0                       # What write queue length does an incoming req see
system.mem_ctrls1.wrQLenPdf::39                     0                       # What write queue length does an incoming req see
system.mem_ctrls1.wrQLenPdf::40                     0                       # What write queue length does an incoming req see
system.mem_ctrls1.wrQLenPdf::41                     0                       # What write queue length does an incoming req see
system.mem_ctrls1.wrQLenPdf::42                     0                       # What write queue length does an incoming req see
system.mem_ctrls1.wrQLenPdf::43                     0                       # What write queue length does an incoming req see
system.mem_ctrls1.wrQLenPdf::44                     0                       # What write queue length does an incoming req see
system.mem_ctrls1.wrQLenPdf::45                     0                       # What write queue length does an incoming req see
system.mem_ctrls1.wrQLenPdf::46                     0                       # What write queue length does an incoming req see
system.mem_ctrls1.wrQLenPdf::47                     0                       # What write queue length does an incoming req see
system.mem_ctrls1.wrQLenPdf::48                     0                       # What write queue length does an incoming req see
system.mem_ctrls1.wrQLenPdf::49                     0                       # What write queue length does an incoming req see
system.mem_ctrls1.wrQLenPdf::50                     0                       # What write queue length does an incoming req see
system.mem_ctrls1.wrQLenPdf::51                     0                       # What write queue length does an incoming req see
system.mem_ctrls1.wrQLenPdf::52                     0                       # What write queue length does an incoming req see
system.mem_ctrls1.wrQLenPdf::53                     0                       # What write queue length does an incoming req see
system.mem_ctrls1.wrQLenPdf::54                     0                       # What write queue length does an incoming req see
system.mem_ctrls1.wrQLenPdf::55                     0                       # What write queue length does an incoming req see
system.mem_ctrls1.wrQLenPdf::56                     0                       # What write queue length does an incoming req see
system.mem_ctrls1.wrQLenPdf::57                     0                       # What write queue length does an incoming req see
system.mem_ctrls1.wrQLenPdf::58                     0                       # What write queue length does an incoming req see
system.mem_ctrls1.wrQLenPdf::59                     0                       # What write queue length does an incoming req see
system.mem_ctrls1.wrQLenPdf::60                     0                       # What write queue length does an incoming req see
system.mem_ctrls1.wrQLenPdf::61                     0                       # What write queue length does an incoming req see
system.mem_ctrls1.wrQLenPdf::62                     0                       # What write queue length does an incoming req see
system.mem_ctrls1.wrQLenPdf::63                     0                       # What write queue length does an incoming req see
system.mem_ctrls1.bytesPerActivate::samples        49311                       # Bytes accessed per row activation
system.mem_ctrls1.bytesPerActivate::mean   156.801363                       # Bytes accessed per row activation
system.mem_ctrls1.bytesPerActivate::gmean   123.485411                       # Bytes accessed per row activation
system.mem_ctrls1.bytesPerActivate::stdev   140.981054                       # Bytes accessed per row activation
system.mem_ctrls1.bytesPerActivate::0-127        18331     37.17%     37.17% # Bytes accessed per row activation
system.mem_ctrls1.bytesPerActivate::128-255        24434     49.55%     86.73% # Bytes accessed per row activation
system.mem_ctrls1.bytesPerActivate::256-383         2944      5.97%     92.70% # Bytes accessed per row activation
system.mem_ctrls1.bytesPerActivate::384-511         1533      3.11%     95.80% # Bytes accessed per row activation
system.mem_ctrls1.bytesPerActivate::512-639          799      1.62%     97.42% # Bytes accessed per row activation
system.mem_ctrls1.bytesPerActivate::640-767          511      1.04%     98.46% # Bytes accessed per row activation
system.mem_ctrls1.bytesPerActivate::768-895          404      0.82%     99.28% # Bytes accessed per row activation
system.mem_ctrls1.bytesPerActivate::896-1023          226      0.46%     99.74% # Bytes accessed per row activation
system.mem_ctrls1.bytesPerActivate::1024-1151          129      0.26%    100.00% # Bytes accessed per row activation
system.mem_ctrls1.bytesPerActivate::total        49311                       # Bytes accessed per row activation
system.mem_ctrls1.rdPerTurnAround::samples         2406                       # Reads before turning the bus around for writes
system.mem_ctrls1.rdPerTurnAround::mean     32.125104                       # Reads before turning the bus around for writes
system.mem_ctrls1.rdPerTurnAround::stdev   652.209243                       # Reads before turning the bus around for writes
system.mem_ctrls1.rdPerTurnAround::0-1023         2405     99.96%     99.96% # Reads before turning the bus around for writes
system.mem_ctrls1.rdPerTurnAround::31744-32767            1      0.04%    100.00% # Reads before turning the bus around for writes
system.mem_ctrls1.rdPerTurnAround::total         2406                       # Reads before turning the bus around for writes
system.mem_ctrls1.wrPerTurnAround::samples         2406                       # Writes before turning the bus around for reads
system.mem_ctrls1.wrPerTurnAround::mean     18.088113                       # Writes before turning the bus around for reads
system.mem_ctrls1.wrPerTurnAround::gmean    18.063710                       # Writes before turning the bus around for reads
system.mem_ctrls1.wrPerTurnAround::stdev     0.948425                       # Writes before turning the bus around for reads
system.mem_ctrls1.wrPerTurnAround::16             216      8.98%      8.98% # Writes before turning the bus around for reads
system.mem_ctrls1.wrPerTurnAround::17              62      2.58%     11.55% # Writes before turning the bus around for reads
system.mem_ctrls1.wrPerTurnAround::18            1573     65.38%     76.93% # Writes before turning the bus around for reads
system.mem_ctrls1.wrPerTurnAround::19             457     18.99%     95.93% # Writes before turning the bus around for reads
system.mem_ctrls1.wrPerTurnAround::20              68      2.83%     98.75% # Writes before turning the bus around for reads
system.mem_ctrls1.wrPerTurnAround::21              19      0.79%     99.54% # Writes before turning the bus around for reads
system.mem_ctrls1.wrPerTurnAround::22               7      0.29%     99.83% # Writes before turning the bus around for reads
system.mem_ctrls1.wrPerTurnAround::23               3      0.12%     99.96% # Writes before turning the bus around for reads
system.mem_ctrls1.wrPerTurnAround::31               1      0.04%    100.00% # Writes before turning the bus around for reads
system.mem_ctrls1.wrPerTurnAround::total         2406                       # Writes before turning the bus around for reads
system.mem_ctrls1.totQLat                  1421097236                       # Total ticks spent queuing
system.mem_ctrls1.totMemAccLat             2870340986                       # Total ticks spent from burst creation until serviced by the DRAM
system.mem_ctrls1.totBusLat                 386465000                       # Total ticks spent in databus transfers
system.mem_ctrls1.avgQLat                    18385.85                       # Average queueing delay per DRAM burst
system.mem_ctrls1.avgBusLat                   5000.00                       # Average bus latency per DRAM burst
system.mem_ctrls1.avgMemAccLat               37135.85                       # Average memory access latency per DRAM burst
system.mem_ctrls1.avgRdBW                        4.82                       # Average DRAM read bandwidth in MiByte/s
system.mem_ctrls1.avgWrBW                        2.72                       # Average achieved write bandwidth in MiByte/s
system.mem_ctrls1.avgRdBWSys                     4.82                       # Average system read bandwidth in MiByte/s
system.mem_ctrls1.avgWrBWSys                     2.72                       # Average system write bandwidth in MiByte/s
system.mem_ctrls1.peakBW                     12800.00                       # Theoretical peak bandwidth in MiByte/s
system.mem_ctrls1.busUtil                        0.06                       # Data bus utilization in percentage
system.mem_ctrls1.busUtilRead                    0.04                       # Data bus utilization in percentage for reads
system.mem_ctrls1.busUtilWrite                   0.02                       # Data bus utilization in percentage for writes
system.mem_ctrls1.avgRdQLen                      1.00                       # Average read queue length when enqueuing
system.mem_ctrls1.avgWrQLen                      0.80                       # Average write queue length when enqueuing
system.mem_ctrls1.readRowHits                   52084                       # Number of row buffer hits during reads
system.mem_ctrls1.writeRowHits                  19418                       # Number of row buffer hits during writes
system.mem_ctrls1.readRowHitRate                67.39                       # Row buffer hit rate for reads
system.mem_ctrls1.writeRowHitRate               44.60                       # Row buffer hit rate for writes
system.mem_ctrls1.avgGap                   8486448.53                       # Average gap between requests
system.mem_ctrls1.pageHitRate                   59.17                       # Row buffer hit rate, read and write combined
system.mem_ctrls1_0.actEnergy               175993860                       # Energy for activate commands per rank (pJ)
system.mem_ctrls1_0.preEnergy                93542955                       # Energy for precharge commands per rank (pJ)
system.mem_ctrls1_0.readEnergy              276974880                       # Energy for read commands per rank (pJ)
system.mem_ctrls1_0.writeEnergy             113973480                       # Energy for write commands per rank (pJ)
system.mem_ctrls1_0.refreshEnergy        4783128480.000001                       # Energy for refresh commands per rank (pJ)
system.mem_ctrls1_0.actBackEnergy          2419968060                       # Energy for active background per rank (pJ)
system.mem_ctrls1_0.preBackEnergy           127639200                       # Energy for precharge background per rank (pJ)
system.mem_ctrls1_0.actPowerDownEnergy    18774308310                       # Energy for active power-down per rank (pJ)
system.mem_ctrls1_0.prePowerDownEnergy     4514958720                       # Energy for precharge power-down per rank (pJ)
system.mem_ctrls1_0.selfRefreshEnergy    232283132115                       # Energy for self refresh per rank (pJ)
system.mem_ctrls1_0.totalEnergy          263564183850                       # Total energy per rank (pJ)
system.mem_ctrls1_0.averagePower           256.942307                       # Core power per rank (mW)
system.mem_ctrls1_0.totalIdleTime        1020103066115                       # Total Idle time Per DRAM Rank
system.mem_ctrls1_0.memoryStateTime::IDLE    121339004                       # Time in different power states
system.mem_ctrls1_0.memoryStateTime::REF   2025060000                       # Time in different power states
system.mem_ctrls1_0.memoryStateTime::SREF 967201795612                       # Time in different power states
system.mem_ctrls1_0.memoryStateTime::PRE_PDN  11758395779                       # Time in different power states
system.mem_ctrls1_0.memoryStateTime::ACT   3494168479                       # Time in different power states
system.mem_ctrls1_0.memoryStateTime::ACT_PDN  41171080488                       # Time in different power states
system.mem_ctrls1_1.actEnergy               176086680                       # Energy for activate commands per rank (pJ)
system.mem_ctrls1_1.preEnergy                93592290                       # Energy for precharge commands per rank (pJ)
system.mem_ctrls1_1.readEnergy              274897140                       # Energy for read commands per rank (pJ)
system.mem_ctrls1_1.writeEnergy             113200920                       # Energy for write commands per rank (pJ)
system.mem_ctrls1_1.refreshEnergy        4662659040.000001                       # Energy for refresh commands per rank (pJ)
system.mem_ctrls1_1.actBackEnergy          2446363050                       # Energy for active background per rank (pJ)
system.mem_ctrls1_1.preBackEnergy           123922560                       # Energy for precharge background per rank (pJ)
system.mem_ctrls1_1.actPowerDownEnergy    18336076920                       # Energy for active power-down per rank (pJ)
system.mem_ctrls1_1.prePowerDownEnergy     4429885920                       # Energy for precharge power-down per rank (pJ)
system.mem_ctrls1_1.selfRefreshEnergy    232525501545                       # Energy for self refresh per rank (pJ)
system.mem_ctrls1_1.totalEnergy          263182658235                       # Total energy per rank (pJ)
system.mem_ctrls1_1.averagePower           256.570368                       # Core power per rank (mW)
system.mem_ctrls1_1.totalIdleTime        1020053548289                       # Total Idle time Per DRAM Rank
system.mem_ctrls1_1.memoryStateTime::IDLE    115654844                       # Time in different power states
system.mem_ctrls1_1.memoryStateTime::REF   1973758000                       # Time in different power states
system.mem_ctrls1_1.memoryStateTime::SREF 968336387112                       # Time in different power states
system.mem_ctrls1_1.memoryStateTime::PRE_PDN  11535377820                       # Time in different power states
system.mem_ctrls1_1.memoryStateTime::ACT   3599926878                       # Time in different power states
system.mem_ctrls1_1.memoryStateTime::ACT_PDN  40210734708                       # Time in different power states
system.pwrStateResidencyTicks::UNDEFINED 111351990593619                       # Cumulative time (in ticks) in various power states
system.cpu.branchPred.lookups                      16                       # Number of BP lookups
system.cpu.branchPred.condPredicted                16                       # Number of conditional branches predicted
system.cpu.branchPred.condIncorrect                13                       # Number of conditional branches incorrect
system.cpu.branchPred.BTBLookups                    0                       # Number of BTB lookups
system.cpu.branchPred.BTBHits                       0                       # Number of BTB hits
system.cpu.branchPred.BTBCorrect                    0                       # Number of correct BTB predictions (this stat may not work properly.
system.cpu.branchPred.BTBHitPct                   nan                       # BTB Hit Percentage
system.cpu.branchPred.usedRAS                       0                       # Number of times the RAS was used to get a target.
system.cpu.branchPred.RASInCorrect                  0                       # Number of incorrect RAS predictions.
system.cpu.branchPred.indirectLookups               0                       # Number of indirect predictor lookups.
system.cpu.branchPred.indirectHits                  0                       # Number of indirect target hits.
system.cpu.branchPred.indirectMisses                0                       # Number of indirect misses.
system.cpu.branchPredindirectMispredicted            0                       # Number of mispredicted indirect branches.
system.cpu_voltage_domain.voltage                   1                       # Voltage in Volts
system.cpu_clk_domain.clock                       333                       # Clock period in ticks
system.cpu.dtb.fetch_hits                           0                       # ITB hits
system.cpu.dtb.fetch_misses                         0                       # ITB misses
system.cpu.dtb.fetch_acv                            0                       # ITB acv
system.cpu.dtb.fetch_accesses                       0                       # ITB accesses
system.cpu.dtb.read_hits                           28                       # DTB read hits
system.cpu.dtb.read_misses                          0                       # DTB read misses
system.cpu.dtb.read_acv                             0                       # DTB read access violations
system.cpu.dtb.read_accesses                       28                       # DTB read accesses
system.cpu.dtb.write_hits                          14                       # DTB write hits
system.cpu.dtb.write_misses                         0                       # DTB write misses
system.cpu.dtb.write_acv                            0                       # DTB write access violations
system.cpu.dtb.write_accesses                      14                       # DTB write accesses
system.cpu.dtb.data_hits                           42                       # DTB hits
system.cpu.dtb.data_misses                          0                       # DTB misses
system.cpu.dtb.data_acv                             0                       # DTB access violations
system.cpu.dtb.data_accesses                       42                       # DTB accesses
system.cpu.itb.fetch_hits                          30                       # ITB hits
system.cpu.itb.fetch_misses                         0                       # ITB misses
system.cpu.itb.fetch_acv                            0                       # ITB acv
system.cpu.itb.fetch_accesses                      30                       # ITB accesses
system.cpu.itb.read_hits                            0                       # DTB read hits
system.cpu.itb.read_misses                          0                       # DTB read misses
system.cpu.itb.read_acv                             0                       # DTB read access violations
system.cpu.itb.read_accesses                        0                       # DTB read accesses
system.cpu.itb.write_hits                           0                       # DTB write hits
system.cpu.itb.write_misses                         0                       # DTB write misses
system.cpu.itb.write_acv                            0                       # DTB write access violations
system.cpu.itb.write_accesses                       0                       # DTB write accesses
system.cpu.itb.data_hits                            0                       # DTB hits
system.cpu.itb.data_misses                          0                       # DTB misses
system.cpu.itb.data_acv                             0                       # DTB access violations
system.cpu.itb.data_accesses                        0                       # DTB accesses
system.cpu.workload.num_syscalls                    6                       # Number of system calls
system.cpu.pwrStateResidencyTicks::ON    1025771839362                       # Cumulative time (in ticks) in various power states
system.cpu.numCycles                              738                       # number of cpu cycles simulated
system.cpu.numWorkItemsStarted                      0                       # number of work items this cpu started
system.cpu.numWorkItemsCompleted                    0                       # number of work items this cpu completed
system.cpu.fetch.icacheStallCycles                176                       # Number of cycles fetch is stalled on an Icache miss
system.cpu.fetch.Insts                            176                       # Number of instructions fetch has processed
system.cpu.fetch.Branches                          16                       # Number of branches that fetch encountered
system.cpu.fetch.Cycles                            29                       # Number of cycles fetch has run and was not squashing or blocked
system.cpu.fetch.SquashCycles                      29                       # Number of cycles fetch has spent squashing
system.cpu.fetch.PendingDrainCycles                23                       # Number of cycles fetch has spent waiting on pipes to drain
system.cpu.fetch.CacheLines                        30                       # Number of cache lines fetched
system.cpu.fetch.IcacheSquashes                    15                       # Number of outstanding Icache misses that were squashed
system.cpu.fetch.rateDist::samples                242                       # Number of instructions fetched each cycle (Total)
system.cpu.fetch.rateDist::mean              0.727273                       # Number of instructions fetched each cycle (Total)
system.cpu.fetch.rateDist::stdev             2.093261                       # Number of instructions fetched each cycle (Total)
system.cpu.fetch.rateDist::underflows               0      0.00%      0.00% # Number of instructions fetched each cycle (Total)
system.cpu.fetch.rateDist::0                      213     88.02%     88.02% # Number of instructions fetched each cycle (Total)
system.cpu.fetch.rateDist::1                        0      0.00%     88.02% # Number of instructions fetched each cycle (Total)
system.cpu.fetch.rateDist::2                        0      0.00%     88.02% # Number of instructions fetched each cycle (Total)
system.cpu.fetch.rateDist::3                        0      0.00%     88.02% # Number of instructions fetched each cycle (Total)
system.cpu.fetch.rateDist::4                       14      5.79%     93.80% # Number of instructions fetched each cycle (Total)
[...]
system.switch_cpus_1.iq.int_inst_queue_writes    202641782                       # Number of integer instruction queue writes
system.switch_cpus_1.iq.int_inst_queue_wakeup_accesses    200868837                       # Number of integer instruction queue wakeup accesses
system.switch_cpus_1.iq.fp_inst_queue_reads        21432                       # Number of floating instruction queue reads
system.switch_cpus_1.iq.fp_inst_queue_writes        20945                       # Number of floating instruction queue writes
system.switch_cpus_1.iq.fp_inst_queue_wakeup_accesses         9443                       # Number of floating instruction queue wakeup accesses
system.switch_cpus_1.iq.int_alu_accesses    204532616                       # Number of integer alu accesses
system.switch_cpus_1.iq.fp_alu_accesses         10851                       # Number of floating point alu accesses
system.switch_cpus_1.iew.lsq.thread0.forwLoads      2201051                       # Number of loads that had data forwarded from stores
system.switch_cpus_1.iew.lsq.thread0.invAddrLoads            0                       # Number of loads ignored due to an invalid address
system.switch_cpus_1.iew.lsq.thread0.squashedLoads       350812                       # Number of loads squashed
system.switch_cpus_1.iew.lsq.thread0.ignoredResponses          208                       # Number of memory responses ignored because the instruction is squashed
system.switch_cpus_1.iew.lsq.thread0.memOrderViolation         3524                       # Number of memory ordering violations
system.switch_cpus_1.iew.lsq.thread0.squashedStores       139589                       # Number of stores squashed
system.switch_cpus_1.iew.lsq.thread0.invAddrSwpfs            0                       # Number of software prefetches ignored due to an invalid address
system.switch_cpus_1.iew.lsq.thread0.blockedLoads            0                       # Number of blocked loads due to partial load-store forwarding
system.switch_cpus_1.iew.lsq.thread0.rescheduledLoads           38                       # Number of loads that were rescheduled
system.switch_cpus_1.iew.lsq.thread0.cacheBlocked       424525                       # Number of times an access to memory failed due to the cache being blocked
system.switch_cpus_1.iew.iewIdleCycles              0                       # Number of cycles IEW is idle
system.switch_cpus_1.iew.iewSquashCycles        36237                       # Number of cycles IEW is squashing
system.switch_cpus_1.iew.iewBlockCycles        344711                       # Number of cycles IEW is blocking
system.switch_cpus_1.iew.iewUnblockCycles      2543532                       # Number of cycles IEW is unblocking
system.switch_cpus_1.iew.iewDispatchedInsts    201463509                       # Number of instructions dispatched to IQ
system.switch_cpus_1.iew.iewDispSquashedInsts         1179                       # Number of squashed instructions skipped by dispatch
system.switch_cpus_1.iew.iewDispLoadInsts     53740612                       # Number of dispatched load instructions
system.switch_cpus_1.iew.iewDispStoreInsts     22318182                       # Number of dispatched store instructions
system.switch_cpus_1.iew.iewDispNonSpecInsts         1869                       # Number of dispatched non-speculative instructions
system.switch_cpus_1.iew.iewIQFullEvents         9783                       # Number of times the IQ has become full, causing a stall
system.switch_cpus_1.iew.iewLSQFullEvents      2518477                       # Number of times the LSQ has become full, causing a stall
system.switch_cpus_1.iew.memOrderViolationEvents         3524                       # Number of memory order violations
system.switch_cpus_1.iew.predictedTakenIncorrect        11658                       # Number of branches that were predicted taken incorrectly
system.switch_cpus_1.iew.predictedNotTakenIncorrect        16812                       # Number of branches that were predicted not taken incorrectly
system.switch_cpus_1.iew.branchMispredicts        28470                       # Number of branch mispredicts detected at execute
system.switch_cpus_1.iew.iewExecutedInsts    201358212                       # Number of executed instructions
system.switch_cpus_1.iew.iewExecLoadInsts     54077361                       # Number of load instructions executed
system.switch_cpus_1.iew.iewExecSquashedInsts        67131                       # Number of squashed instructions skipped in execute
system.switch_cpus_1.iew.exec_swp                   0                       # number of swp insts executed
system.switch_cpus_1.iew.exec_nop              133852                       # number of nop insts executed
system.switch_cpus_1.iew.exec_refs           76338665                       # number of memory reference insts executed
system.switch_cpus_1.iew.exec_branches        9159797                       # Number of branches executed
system.switch_cpus_1.iew.exec_stores         22261304                       # Number of stores executed
system.switch_cpus_1.iew.exec_rate           2.875536                       # Inst execution rate
system.switch_cpus_1.iew.wb_sent            200930210                       # cumulative count of insts sent to commit
system.switch_cpus_1.iew.wb_count           200878280                       # cumulative count of insts written-back
system.switch_cpus_1.iew.wb_producers       130011968                       # num instructions producing a value
system.switch_cpus_1.iew.wb_consumers       178489245                       # num instructions consuming a value
system.switch_cpus_1.iew.wb_rate             2.868682                       # insts written-back per cycle
system.switch_cpus_1.iew.wb_fanout           0.728402                       # average fanout of values written-back
system.switch_cpus_1.commit.commitSquashedInsts      1269273                       # The number of squashed insts skipped by commit
system.switch_cpus_1.commit.commitNonSpecStalls         2565                       # The number of times commit has been forced to stall to communicate backwards
system.switch_cpus_1.commit.branchMispredicts        27196                       # The number of times a branch was mispredicted
system.switch_cpus_1.commit.committed_per_cycle::samples     69798996                       # Number of insts commited each cycle
system.switch_cpus_1.commit.committed_per_cycle::mean     2.866855                       # Number of insts commited each cycle
system.switch_cpus_1.commit.committed_per_cycle::stdev     3.451287                       # Number of insts commited each cycle
system.switch_cpus_1.commit.committed_per_cycle::underflows            0      0.00%      0.00% # Number of insts commited each cycle
system.switch_cpus_1.commit.committed_per_cycle::0     29936167     42.89%     42.89% # Number of insts commited each cycle
system.switch_cpus_1.commit.committed_per_cycle::1     11525064     16.51%     59.40% # Number of insts commited each cycle
system.switch_cpus_1.commit.committed_per_cycle::2      2520149      3.61%     63.01% # Number of insts commited each cycle
system.switch_cpus_1.commit.committed_per_cycle::3      2940668      4.21%     67.22% # Number of insts commited each cycle
system.switch_cpus_1.commit.committed_per_cycle::4       425950      0.61%     67.83% # Number of insts commited each cycle
system.switch_cpus_1.commit.committed_per_cycle::5      1973189      2.83%     70.66% # Number of insts commited each cycle
system.switch_cpus_1.commit.committed_per_cycle::6       206885      0.30%     70.96% # Number of insts commited each cycle
system.switch_cpus_1.commit.committed_per_cycle::7       262203      0.38%     71.33% # Number of insts commited each cycle
system.switch_cpus_1.commit.committed_per_cycle::8     20008721     28.67%    100.00% # Number of insts commited each cycle
system.switch_cpus_1.commit.committed_per_cycle::overflows            0      0.00%    100.00% # Number of insts commited each cycle
system.switch_cpus_1.commit.committed_per_cycle::min_value            0                       # Number of insts commited each cycle
system.switch_cpus_1.commit.committed_per_cycle::max_value            8                       # Number of insts commited each cycle
system.switch_cpus_1.commit.committed_per_cycle::total     69798996                       # Number of insts commited each cycle
system.switch_cpus_1.commit.committedInsts    200103610                       # Number of instructions committed
system.switch_cpus_1.commit.committedOps    200103610                       # Number of ops (including micro ops) committed
system.switch_cpus_1.commit.swp_count               0                       # Number of s/w prefetches committed
system.switch_cpus_1.commit.refs             75568371                       # Number of memory references committed
system.switch_cpus_1.commit.loads            53389787                       # Number of loads committed
system.switch_cpus_1.commit.membars              1282                       # Number of memory barriers committed
system.switch_cpus_1.commit.branches          9081009                       # Number of branches committed
system.switch_cpus_1.commit.fp_insts             7063                       # Number of committed floating point instructions.
system.switch_cpus_1.commit.int_insts       199966042                       # Number of committed integer instructions.
system.switch_cpus_1.commit.function_calls        26169                       # Number of function calls committed.
system.switch_cpus_1.commit.op_class_0::No_OpClass       103604      0.05%      0.05% # Class of committed instruction
system.switch_cpus_1.commit.op_class_0::IntAlu    124425131     62.18%     62.23% # Class of committed instruction
system.switch_cpus_1.commit.op_class_0::IntMult           14      0.00%     62.23% # Class of committed instruction
system.switch_cpus_1.commit.op_class_0::IntDiv            0      0.00%     62.23% # Class of committed instruction
system.switch_cpus_1.commit.op_class_0::FloatAdd         3080      0.00%     62.23% # Class of committed instruction
system.switch_cpus_1.commit.op_class_0::FloatCmp          511      0.00%     62.23% # Class of committed instruction
system.switch_cpus_1.commit.op_class_0::FloatCvt          406      0.00%     62.23% # Class of committed instruction
system.switch_cpus_1.commit.op_class_0::FloatMult         1162      0.00%     62.23% # Class of committed instruction
system.switch_cpus_1.commit.op_class_0::FloatMultAcc            0      0.00%     62.23% # Class of committed instruction
system.switch_cpus_1.commit.op_class_0::FloatDiv           49      0.00%     62.23% # Class of committed instruction
system.switch_cpus_1.commit.op_class_0::FloatMisc            0      0.00%     62.23% # Class of committed instruction
system.switch_cpus_1.commit.op_class_0::FloatSqrt            0      0.00%     62.23% # Class of committed instruction
system.switch_cpus_1.commit.op_class_0::SimdAdd            0      0.00%     62.23% # Class of committed instruction
system.switch_cpus_1.commit.op_class_0::SimdAddAcc            0      0.00%     62.23% # Class of committed instruction
system.switch_cpus_1.commit.op_class_0::SimdAlu            0      0.00%     62.23% # Class of committed instruction
system.switch_cpus_1.commit.op_class_0::SimdCmp            0      0.00%     62.23% # Class of committed instruction
system.switch_cpus_1.commit.op_class_0::SimdCvt            0      0.00%     62.23% # Class of committed instruction
system.switch_cpus_1.commit.op_class_0::SimdMisc            0      0.00%     62.23% # Class of committed instruction
system.switch_cpus_1.commit.op_class_0::SimdMult            0      0.00%     62.23% # Class of committed instruction
system.switch_cpus_1.commit.op_class_0::SimdMultAcc            0      0.00%     62.23% # Class of committed instruction
system.switch_cpus_1.commit.op_class_0::SimdShift            0      0.00%     62.23% # Class of committed instruction
system.switch_cpus_1.commit.op_class_0::SimdShiftAcc            0      0.00%     62.23% # Class of committed instruction
system.switch_cpus_1.commit.op_class_0::SimdSqrt            0      0.00%     62.23% # Class of committed instruction
system.switch_cpus_1.commit.op_class_0::SimdFloatAdd            0      0.00%     62.23% # Class of committed instruction
system.switch_cpus_1.commit.op_class_0::SimdFloatAlu            0      0.00%     62.23% # Class of committed instruction
system.switch_cpus_1.commit.op_class_0::SimdFloatCmp            0      0.00%     62.23% # Class of committed instruction
system.switch_cpus_1.commit.op_class_0::SimdFloatCvt            0      0.00%     62.23% # Class of committed instruction
system.switch_cpus_1.commit.op_class_0::SimdFloatDiv            0      0.00%     62.23% # Class of committed instruction
system.switch_cpus_1.commit.op_class_0::SimdFloatMisc            0      0.00%     62.23% # Class of committed instruction
system.switch_cpus_1.commit.op_class_0::SimdFloatMult            0      0.00%     62.23% # Class of committed instruction
system.switch_cpus_1.commit.op_class_0::SimdFloatMultAcc            0      0.00%     62.23% # Class of committed instruction
system.switch_cpus_1.commit.op_class_0::SimdFloatSqrt            0      0.00%     62.23% # Class of committed instruction
system.switch_cpus_1.commit.op_class_0::MemRead     53389445     26.68%     88.92% # Class of committed instruction
system.switch_cpus_1.commit.op_class_0::MemWrite     22178353     11.08%    100.00% # Class of committed instruction
system.switch_cpus_1.commit.op_class_0::FloatMemRead         1624      0.00%    100.00% # Class of committed instruction
system.switch_cpus_1.commit.op_class_0::FloatMemWrite          231      0.00%    100.00% # Class of committed instruction
system.switch_cpus_1.commit.op_class_0::IprAccess            0      0.00%    100.00% # Class of committed instruction
system.switch_cpus_1.commit.op_class_0::InstPrefetch            0      0.00%    100.00% # Class of committed instruction
system.switch_cpus_1.commit.op_class_0::total    200103610                       # Class of committed instruction
system.switch_cpus_1.commit.bw_lim_events     20008721                       # number cycles where commit BW limit reached
system.switch_cpus_1.rob.rob_reads          251084027                       # The number of ROB reads
system.switch_cpus_1.rob.rob_writes         402932563                       # The number of ROB writes
system.switch_cpus_1.timesIdled                   893                       # Number of times that the entire CPU went into an idle state and unscheduled itself
system.switch_cpus_1.idleCycles                 41314                       # Total number of cycles that the CPU has spent unscheduled due to idling
system.switch_cpus_1.committedInsts         200000006                       # Number of Instructions Simulated
system.switch_cpus_1.committedOps           200000006                       # Number of Ops (including micro ops) Simulated
system.switch_cpus_1.cpi                     0.350123                       # CPI: Cycles Per Instruction
system.switch_cpus_1.cpi_total               0.350123                       # CPI: Total CPI of All Threads
system.switch_cpus_1.ipc                     2.856140                       # IPC: Instructions Per Cycle
system.switch_cpus_1.ipc_total               2.856140                       # IPC: Total IPC of All Threads
system.switch_cpus_1.int_regfile_reads      323290472                       # number of integer regfile reads
system.switch_cpus_1.int_regfile_writes     169528553                       # number of integer regfile writes
system.switch_cpus_1.fp_regfile_reads           12309                       # number of floating regfile reads
system.switch_cpus_1.fp_regfile_writes           8059                       # number of floating regfile writes
system.switch_cpus_1.misc_regfile_reads         13713                       # number of misc regfile reads
system.switch_cpus_1.misc_regfile_writes         2564                       # number of misc regfile writes
system.tol3bus.snoop_filter.tot_requests      5443171                       # Total number of requests made to the snoop filter.
system.tol3bus.snoop_filter.hit_single_requests      2719264                       # Number of requests hitting in the snoop filter with a single holder of the requested data.
system.tol3bus.snoop_filter.hit_multi_requests            0                       # Number of requests hitting in the snoop filter with multiple (>1) holders of the requested data.
system.tol3bus.snoop_filter.tot_snoops            882                       # Total number of snoops made to the snoop filter.
system.tol3bus.snoop_filter.hit_single_snoops          882                       # Number of snoops hitting in the snoop filter with a single holder of the requested data.
system.tol3bus.snoop_filter.hit_multi_snoops            0                       # Number of snoops hitting in the snoop filter with multiple (>1) holders of the requested data.
system.tol3bus.pwrStateResidencyTicks::UNDEFINED 111351990593619                       # Cumulative time (in ticks) in various power states
system.tol3bus.trans_dist::ReadResp            206231                       # Transaction distribution
system.tol3bus.trans_dist::WritebackDirty      2639260                       # Transaction distribution
system.tol3bus.trans_dist::CleanEvict          169113                       # Transaction distribution
system.tol3bus.trans_dist::ReadExReq          2517676                       # Transaction distribution
system.tol3bus.trans_dist::ReadExResp         2517676                       # Transaction distribution
system.tol3bus.trans_dist::ReadSharedReq       206231                       # Transaction distribution
system.tol3bus.pkt_count_system.cpu.l2.mem_side::system.l3.cpu_side      8167078                       # Packet count per connected master and slave (bytes)
system.tol3bus.pkt_size_system.cpu.l2.mem_side::system.l3.cpu_side    337671936                       # Cumulative packet size per connected master and slave (bytes)
system.tol3bus.snoops                           89109                       # Total snoops (count)
system.tol3bus.snoopTraffic                   5570752                       # Total snoop traffic (bytes)
system.tol3bus.snoop_fanout::samples          2813016                       # Request fanout histogram
system.tol3bus.snoop_fanout::mean            0.000314                       # Request fanout histogram
system.tol3bus.snoop_fanout::stdev           0.017704                       # Request fanout histogram
system.tol3bus.snoop_fanout::underflows             0      0.00%      0.00% # Request fanout histogram
system.tol3bus.snoop_fanout::0                2812134     99.97%     99.97% # Request fanout histogram
system.tol3bus.snoop_fanout::1                    882      0.03%    100.00% # Request fanout histogram
system.tol3bus.snoop_fanout::overflows              0      0.00%    100.00% # Request fanout histogram
system.tol3bus.snoop_fanout::min_value              0                       # Request fanout histogram
system.tol3bus.snoop_fanout::max_value              1                       # Request fanout histogram
system.tol3bus.snoop_fanout::total            2813016                       # Request fanout histogram
system.tol3bus.reqLayer0.occupancy         2662464204                       # Layer occupancy (ticks)
system.tol3bus.reqLayer0.utilization              0.3                       # Layer utilization (%)
system.tol3bus.respLayer0.occupancy        1814122062                       # Layer occupancy (ticks)
system.tol3bus.respLayer0.utilization             0.2                       # Layer utilization (%)

---------- End Simulation Statistics   ----------
