
---------- Begin Simulation Statistics ----------
sim_seconds                                  1.492211                       # Number of seconds simulated
sim_ticks                                1492210976985                       # Number of ticks simulated
final_tick                               34795588901346                       # Number of ticks from beginning of simulation (restored from checkpoints and never reset)
sim_freq                                 1000000000000                       # Frequency of simulated ticks
host_inst_rate                                 495078                       # Simulator instruction rate (inst/s)
host_op_rate                                   495078                       # Simulator op (including micro ops) rate (op/s)
host_tick_rate                              615633664                       # Simulator tick rate (ticks/s)
host_mem_usage                                2567256                       # Number of bytes of host memory used
host_seconds                                  2423.86                       # Real time elapsed on the host
sim_insts                                  1200000009                       # Number of instructions simulated
sim_ops                                    1200000009                       # Number of ops (including micro ops) simulated
system.voltage_domain.voltage                       1                       # Voltage in Volts
system.clk_domain.clock                          1000                       # Clock period in ticks
system.mem_ctrls0.pwrStateResidencyTicks::UNDEFINED 34795588901346                       # Cumulative time (in ticks) in various power states
system.mem_ctrls0.bytes_read::cpu.inst            128                       # Number of bytes read from this memory
system.mem_ctrls0.bytes_read::cpu.data            192                       # Number of bytes read from this memory
system.mem_ctrls0.bytes_read::switch_cpus.inst         8064                       # Number of bytes read from this memory
system.mem_ctrls0.bytes_read::switch_cpus.data     85878016                       # Number of bytes read from this memory
system.mem_ctrls0.bytes_read::switch_cpus_1.inst           64                       # Number of bytes read from this memory
system.mem_ctrls0.bytes_read::switch_cpus_1.data     17575616                       # Number of bytes read from this memory
system.mem_ctrls0.bytes_read::total         103462080                       # Number of bytes read from this memory
system.mem_ctrls0.bytes_inst_read::cpu.inst          128                       # Number of instructions bytes read from this memory
system.mem_ctrls0.bytes_inst_read::switch_cpus.inst         8064                       # Number of instructions bytes read from this memory
system.mem_ctrls0.bytes_inst_read::switch_cpus_1.inst           64                       # Number of instructions bytes read from this memory
system.mem_ctrls0.bytes_inst_read::total         8256                       # Number of instructions bytes read from this memory
system.mem_ctrls0.bytes_written::writebacks     34990592                       # Number of bytes written to this memory
system.mem_ctrls0.bytes_written::total       34990592                       # Number of bytes written to this memory
system.mem_ctrls0.num_reads::cpu.inst               2                       # Number of read requests responded to by this memory
system.mem_ctrls0.num_reads::cpu.data               3                       # Number of read requests responded to by this memory
system.mem_ctrls0.num_reads::switch_cpus.inst          126                       # Number of read requests responded to by this memory
system.mem_ctrls0.num_reads::switch_cpus.data      1341844                       # Number of read requests responded to by this memory
system.mem_ctrls0.num_reads::switch_cpus_1.inst            1                       # Number of read requests responded to by this memory
system.mem_ctrls0.num_reads::switch_cpus_1.data       274619                       # Number of read requests responded to by this memory
system.mem_ctrls0.num_reads::total            1616595                       # Number of read requests responded to by this memory
system.mem_ctrls0.num_writes::writebacks       546728                       # Number of write requests responded to by this memory
system.mem_ctrls0.num_writes::total            546728                       # Number of write requests responded to by this memory
system.mem_ctrls0.bw_read::cpu.inst                86                       # Total read bandwidth from this memory (bytes/s)
system.mem_ctrls0.bw_read::cpu.data               129                       # Total read bandwidth from this memory (bytes/s)
system.mem_ctrls0.bw_read::switch_cpus.inst         5404                       # Total read bandwidth from this memory (bytes/s)
system.mem_ctrls0.bw_read::switch_cpus.data     57550854                       # Total read bandwidth from this memory (bytes/s)
system.mem_ctrls0.bw_read::switch_cpus_1.inst           43                       # Total read bandwidth from this memory (bytes/s)
system.mem_ctrls0.bw_read::switch_cpus_1.data     11778238                       # Total read bandwidth from this memory (bytes/s)
system.mem_ctrls0.bw_read::total             69334753                       # Total read bandwidth from this memory (bytes/s)
system.mem_ctrls0.bw_inst_read::cpu.inst           86                       # Instruction read bandwidth from this memory (bytes/s)
system.mem_ctrls0.bw_inst_read::switch_cpus.inst         5404                       # Instruction read bandwidth from this memory (bytes/s)
system.mem_ctrls0.bw_inst_read::switch_cpus_1.inst           43                       # Instruction read bandwidth from this memory (bytes/s)
system.mem_ctrls0.bw_inst_read::total            5533                       # Instruction read bandwidth from this memory (bytes/s)
system.mem_ctrls0.bw_write::writebacks       23448824                       # Write bandwidth from this memory (bytes/s)
system.mem_ctrls0.bw_write::total            23448824                       # Write bandwidth from this memory (bytes/s)
system.mem_ctrls0.bw_total::writebacks       23448824                       # Total bandwidth to/from this memory (bytes/s)
system.mem_ctrls0.bw_total::cpu.inst               86                       # Total bandwidth to/from this memory (bytes/s)
system.mem_ctrls0.bw_total::cpu.data              129                       # Total bandwidth to/from this memory (bytes/s)
system.mem_ctrls0.bw_total::switch_cpus.inst         5404                       # Total bandwidth to/from this memory (bytes/s)
system.mem_ctrls0.bw_total::switch_cpus.data     57550854                       # Total bandwidth to/from this memory (bytes/s)
system.mem_ctrls0.bw_total::switch_cpus_1.inst           43                       # Total bandwidth to/from this memory (bytes/s)
system.mem_ctrls0.bw_total::switch_cpus_1.data     11778238                       # Total bandwidth to/from this memory (bytes/s)
system.mem_ctrls0.bw_total::total            92783577                       # Total bandwidth to/from this memory (bytes/s)
system.mem_ctrls0.readReqs                    1616595                       # Number of read requests accepted
system.mem_ctrls0.writeReqs                    546728                       # Number of write requests accepted
system.mem_ctrls0.readBursts                  1616595                       # Number of DRAM read bursts, including those serviced by the write queue
system.mem_ctrls0.writeBursts                  546728                       # Number of DRAM write bursts, including those merged in the write queue
system.mem_ctrls0.bytesReadDRAM             103444096                       # Total number of bytes read from DRAM
system.mem_ctrls0.bytesReadWrQ                  17984                       # Total number of bytes read from write queue
system.mem_ctrls0.bytesWritten               34988608                       # Total number of bytes written to DRAM
system.mem_ctrls0.bytesReadSys              103462080                       # Total read bytes from the system interface side
system.mem_ctrls0.bytesWrittenSys            34990592                       # Total written bytes from the system interface side
system.mem_ctrls0.servicedByWrQ                   281                       # Number of DRAM read bursts serviced by the write queue
system.mem_ctrls0.mergedWrBursts                    0                       # Number of DRAM write bursts merged with an existing one
system.mem_ctrls0.neitherReadNorWriteReqs            0                       # Number of requests that are neither read nor write
system.mem_ctrls0.perBankRdBursts::0           105240                       # Per bank write bursts
system.mem_ctrls0.perBankRdBursts::1           103175                       # Per bank write bursts
system.mem_ctrls0.perBankRdBursts::2           103974                       # Per bank write bursts
system.mem_ctrls0.perBankRdBursts::3           100791                       # Per bank write bursts
system.mem_ctrls0.perBankRdBursts::4           101736                       # Per bank write bursts
system.mem_ctrls0.perBankRdBursts::5           101611                       # Per bank write bursts
system.mem_ctrls0.perBankRdBursts::6           100780                       # Per bank write bursts
system.mem_ctrls0.perBankRdBursts::7           101361                       # Per bank write bursts
system.mem_ctrls0.perBankRdBursts::8           100352                       # Per bank write bursts
system.mem_ctrls0.perBankRdBursts::9            98882                       # Per bank write bursts
system.mem_ctrls0.perBankRdBursts::10           99037                       # Per bank write bursts
system.mem_ctrls0.perBankRdBursts::11           99394                       # Per bank write bursts
system.mem_ctrls0.perBankRdBursts::12           98280                       # Per bank write bursts
system.mem_ctrls0.perBankRdBursts::13           98120                       # Per bank write bursts
system.mem_ctrls0.perBankRdBursts::14          100166                       # Per bank write bursts
system.mem_ctrls0.perBankRdBursts::15          103415                       # Per bank write bursts
system.mem_ctrls0.perBankWrBursts::0            36398                       # Per bank write bursts
system.mem_ctrls0.perBankWrBursts::1            35416                       # Per bank write bursts
system.mem_ctrls0.perBankWrBursts::2            34845                       # Per bank write bursts
system.mem_ctrls0.perBankWrBursts::3            33702                       # Per bank write bursts
system.mem_ctrls0.perBankWrBursts::4            33695                       # Per bank write bursts
system.mem_ctrls0.perBankWrBursts::5            33637                       # Per bank write bursts
system.mem_ctrls0.perBankWrBursts::6            33563                       # Per bank write bursts
system.mem_ctrls0.perBankWrBursts::7            33965                       # Per bank write bursts
system.mem_ctrls0.perBankWrBursts::8            33576                       # Per bank write bursts
system.mem_ctrls0.perBankWrBursts::9            33386                       # Per bank write bursts
system.mem_ctrls0.perBankWrBursts::10           33734                       # Per bank write bursts
system.mem_ctrls0.perBankWrBursts::11           33679                       # Per bank write bursts
system.mem_ctrls0.perBankWrBursts::12           33528                       # Per bank write bursts
system.mem_ctrls0.perBankWrBursts::13           33575                       # Per bank write bursts
system.mem_ctrls0.perBankWrBursts::14           34424                       # Per bank write bursts
system.mem_ctrls0.perBankWrBursts::15           35574                       # Per bank write bursts
system.mem_ctrls0.numRdRetry                        0                       # Number of times read queue was full causing retry
system.mem_ctrls0.numWrRetry                        0                       # Number of times write queue was full causing retry
system.mem_ctrls0.totGap                 1492210660635                       # Total gap between requests
system.mem_ctrls0.readPktSize::0                    0                       # Read request sizes (log2)
system.mem_ctrls0.readPktSize::1                    0                       # Read request sizes (log2)
system.mem_ctrls0.readPktSize::2                    0                       # Read request sizes (log2)
system.mem_ctrls0.readPktSize::3                    0                       # Read request sizes (log2)
system.mem_ctrls0.readPktSize::4                    0                       # Read request sizes (log2)
system.mem_ctrls0.readPktSize::5                    0                       # Read request sizes (log2)
system.mem_ctrls0.readPktSize::6              1616595                       # Read request sizes (log2)
system.mem_ctrls0.writePktSize::0                   0                       # Write request sizes (log2)
system.mem_ctrls0.writePktSize::1                   0                       # Write request sizes (log2)
system.mem_ctrls0.writePktSize::2                   0                       # Write request sizes (log2)
system.mem_ctrls0.writePktSize::3                   0                       # Write request sizes (log2)
system.mem_ctrls0.writePktSize::4                   0                       # Write request sizes (log2)
system.mem_ctrls0.writePktSize::5                   0                       # Write request sizes (log2)
system.mem_ctrls0.writePktSize::6              546728                       # Write request sizes (log2)
system.mem_ctrls0.rdQLenPdf::0                1511382                       # What read queue length does an incoming req see
system.mem_ctrls0.rdQLenPdf::1                  92306                       # What read queue length does an incoming req see
system.mem_ctrls0.rdQLenPdf::2                  11657                       # What read queue length does an incoming req see
system.mem_ctrls0.rdQLenPdf::3                    969                       # What read queue length does an incoming req see
system.mem_ctrls0.rdQLenPdf::4                      0                       # What read queue length does an incoming req see
system.mem_ctrls0.rdQLenPdf::5                      0                       # What read queue length does an incoming req see
system.mem_ctrls0.rdQLenPdf::6                      0                       # What read queue length does an incoming req see
system.mem_ctrls0.rdQLenPdf::7                      0                       # What read queue length does an incoming req see
system.mem_ctrls0.rdQLenPdf::8                      0                       # What read queue length does an incoming req see
system.mem_ctrls0.rdQLenPdf::9                      0                       # What read queue length does an incoming req see
system.mem_ctrls0.rdQLenPdf::10                     0                       # What read queue length does an incoming req see
system.mem_ctrls0.rdQLenPdf::11                     0                       # What read queue length does an incoming req see
system.mem_ctrls0.rdQLenPdf::12                     0                       # What read queue length does an incoming req see
system.mem_ctrls0.rdQLenPdf::13                     0                       # What read queue length does an incoming req see
system.mem_ctrls0.rdQLenPdf::14                     0                       # What read queue length does an incoming req see
system.mem_ctrls0.rdQLenPdf::15                     0                       # What read queue length does an incoming req see
system.mem_ctrls0.rdQLenPdf::16                     0                       # What read queue length does an incoming req see
system.mem_ctrls0.rdQLenPdf::17                     0                       # What read queue length does an incoming req see
system.mem_ctrls0.rdQLenPdf::18                     0                       # What read queue length does an incoming req see
system.mem_ctrls0.rdQLenPdf::19                     0                       # What read queue length does an incoming req see
system.mem_ctrls0.rdQLenPdf::20                     0                       # What read queue length does an incoming req see
system.mem_ctrls0.rdQLenPdf::21                     0                       # What read queue length does an incoming req see
system.mem_ctrls0.rdQLenPdf::22                     0                       # What read queue length does an incoming req see
system.mem_ctrls0.rdQLenPdf::23                     0                       # What read queue length does an incoming req see
system.mem_ctrls0.rdQLenPdf::24                     0                       # What read queue length does an incoming req see
system.mem_ctrls0.rdQLenPdf::25                     0                       # What read queue length does an incoming req see
system.mem_ctrls0.rdQLenPdf::26                     0                       # What read queue length does an incoming req see
system.mem_ctrls0.rdQLenPdf::27                     0                       # What read queue length does an incoming req see
system.mem_ctrls0.rdQLenPdf::28                     0                       # What read queue length does an incoming req see
system.mem_ctrls0.rdQLenPdf::29                     0                       # What read queue length does an incoming req see
system.mem_ctrls0.rdQLenPdf::30                     0                       # What read queue length does an incoming req see
system.mem_ctrls0.rdQLenPdf::31                     0                       # What read queue length does an incoming req see
system.mem_ctrls0.wrQLenPdf::0                      2                       # What write queue length does an incoming req see
system.mem_ctrls0.wrQLenPdf::1                      2                       # What write queue length does an incoming req see
system.mem_ctrls0.wrQLenPdf::2                      2                       # What write queue length does an incoming req see
system.mem_ctrls0.wrQLenPdf::3                      2                       # What write queue length does an incoming req see
system.mem_ctrls0.wrQLenPdf::4                      2                       # What write queue length does an incoming req see
system.mem_ctrls0.wrQLenPdf::5                      2                       # What write queue length does an incoming req see
system.mem_ctrls0.wrQLenPdf::6                      2                       # What write queue length does an incoming req see
system.mem_ctrls0.wrQLenPdf::7                      2                       # What write queue length does an incoming req see
system.mem_ctrls0.wrQLenPdf::8                      2                       # What write queue length does an incoming req see
system.mem_ctrls0.wrQLenPdf::9                      2                       # What write queue length does an incoming req see
system.mem_ctrls0.wrQLenPdf::10                     2                       # What write queue length does an incoming req see
system.mem_ctrls0.wrQLenPdf::11                     2                       # What write queue length does an incoming req see
system.mem_ctrls0.wrQLenPdf::12                     2                       # What write queue length does an incoming req see
system.mem_ctrls0.wrQLenPdf::13                     2                       # What write queue length does an incoming req see
system.mem_ctrls0.wrQLenPdf::14                     2                       # What write queue length does an incoming req see
system.mem_ctrls0.wrQLenPdf::15                 17303                       # What write queue length does an incoming req see
system.mem_ctrls0.wrQLenPdf::16                 18055                       # What write queue length does an incoming req see
system.mem_ctrls0.wrQLenPdf::17                 30374                       # What write queue length does an incoming req see
system.mem_ctrls0.wrQLenPdf::18                 31820                       # What write queue length does an incoming req see
system.mem_ctrls0.wrQLenPdf::19                 32013                       # What write queue length does an incoming req see
system.mem_ctrls0.wrQLenPdf::20                 32034                       # What write queue length does an incoming req see
system.mem_ctrls0.wrQLenPdf::21                 32022                       # What write queue length does an incoming req see
system.mem_ctrls0.wrQLenPdf::22                 32098                       # What write queue length does an incoming req see
system.mem_ctrls0.wrQLenPdf::23                 32044                       # What write queue length does an incoming req see
system.mem_ctrls0.wrQLenPdf::24                 32079                       # What write queue length does an incoming req see
system.mem_ctrls0.wrQLenPdf::25                 32035                       # What write queue length does an incoming req see
system.mem_ctrls0.wrQLenPdf::26                 32040                       # What write queue length does an incoming req see
system.mem_ctrls0.wrQLenPdf::27                 32075                       # What write queue length does an incoming req see
system.mem_ctrls0.wrQLenPdf::28                 32439                       # What write queue length does an incoming req see
system.mem_ctrls0.wrQLenPdf::29                 32347                       # What write queue length does an incoming req see
system.mem_ctrls0.wrQLenPdf::30                 32053                       # What write queue length does an incoming req see
system.mem_ctrls0.wrQLenPdf::31                 31912                       # What write queue length does an incoming req see
system.mem_ctrls0.wrQLenPdf::32                 31870                       # What write queue length does an incoming req see
system.mem_ctrls0.wrQLenPdf::33                    78                       # What write queue length does an incoming req see
system.mem_ctrls0.wrQLenPdf::34                     6                       # What write queue length does an incoming req see
system.mem_ctrls0.wrQLenPdf::35                     1                       # What write queue length does an incoming req see
system.mem_ctrls0.wrQLenPdf::36                     0                       # What write queue length does an incoming req see
system.mem_ctrls0.wrQLenPdf::37                     0                       # What write queue length does an incoming req see
system.mem_ctrls0.wrQLenPdf::38                     0                       # What write queue length does an incoming req see
system.mem_ctrls0.wrQLenPdf::39                     0                       # What write queue length does an incoming req see
system.mem_ctrls0.wrQLenPdf::40                     0                       # What write queue length does an incoming req see
system.mem_ctrls0.wrQLenPdf::41                     0                       # What write queue length does an incoming req see
system.mem_ctrls0.wrQLenPdf::42                     0                       # What write queue length does an incoming req see
system.mem_ctrls0.wrQLenPdf::43                     0                       # What write queue length does an incoming req see
system.mem_ctrls0.wrQLenPdf::44                     0                       # What write queue length does an incoming req see
system.mem_ctrls0.wrQLenPdf::45                     0                       # What write queue length does an incoming req see
system.mem_ctrls0.wrQLenPdf::46                     0                       # What write queue length does an incoming req see
system.mem_ctrls0.wrQLenPdf::47                     0                       # What write queue length does an incoming req see
system.mem_ctrls0.wrQLenPdf::48                     0                       # What write queue length does an incoming req see
system.mem_ctrls0.wrQLenPdf::49                     0                       # What write queue length does an incoming req see
system.mem_ctrls0.wrQLenPdf::50                     0                       # What write queue length does an incoming req see
system.mem_ctrls0.wrQLenPdf::51                     0                       # What write queue length does an incoming req see
system.mem_ctrls0.wrQLenPdf::52                     0                       # What write queue length does an incoming req see
system.mem_ctrls0.wrQLenPdf::53                     0                       # What write queue length does an incoming req see
system.mem_ctrls0.wrQLenPdf::54                     0                       # What write queue length does an incoming req see
system.mem_ctrls0.wrQLenPdf::55                     0                       # What write queue length does an incoming req see
system.mem_ctrls0.wrQLenPdf::56                     0                       # What write queue length does an incoming req see
system.mem_ctrls0.wrQLenPdf::57                     0                       # What write queue length does an incoming req see
system.mem_ctrls0.wrQLenPdf::58                     0                       # What write queue length does an incoming req see
system.mem_ctrls0.wrQLenPdf::59                     0                       # What write queue length does an incoming req see
system.mem_ctrls0.wrQLenPdf::60                     0                       # What write queue length does an incoming req see
system.mem_ctrls0.wrQLenPdf::61                     0                       # What write queue length does an incoming req see
system.mem_ctrls0.wrQLenPdf::62                     0                       # What write queue length does an incoming req see
system.mem_ctrls0.wrQLenPdf::63                     0                       # What write queue length does an incoming req see
system.mem_ctrls0.bytesPerActivate::samples      1959444                       # Bytes accessed per row activation
system.mem_ctrls0.bytesPerActivate::mean    70.648580                       # Bytes accessed per row activation
system.mem_ctrls0.bytesPerActivate::gmean    67.815578                       # Bytes accessed per row activation
system.mem_ctrls0.bytesPerActivate::stdev    30.901732                       # Bytes accessed per row activation
system.mem_ctrls0.bytesPerActivate::0-127      1833341     93.56%     93.56% # Bytes accessed per row activation
system.mem_ctrls0.bytesPerActivate::128-255       106319      5.43%     98.99% # Bytes accessed per row activation
system.mem_ctrls0.bytesPerActivate::256-383        16345      0.83%     99.82% # Bytes accessed per row activation
system.mem_ctrls0.bytesPerActivate::384-511         2817      0.14%     99.97% # Bytes accessed per row activation
system.mem_ctrls0.bytesPerActivate::512-639          497      0.03%     99.99% # Bytes accessed per row activation
system.mem_ctrls0.bytesPerActivate::640-767           89      0.00%    100.00% # Bytes accessed per row activation
system.mem_ctrls0.bytesPerActivate::768-895           26      0.00%    100.00% # Bytes accessed per row activation
system.mem_ctrls0.bytesPerActivate::896-1023            4      0.00%    100.00% # Bytes accessed per row activation
system.mem_ctrls0.bytesPerActivate::1024-1151            6      0.00%    100.00% # Bytes accessed per row activation
system.mem_ctrls0.bytesPerActivate::total      1959444                       # Bytes accessed per row activation
system.mem_ctrls0.rdPerTurnAround::samples        31861                       # Reads before turning the bus around for writes
system.mem_ctrls0.rdPerTurnAround::mean     50.729356                       # Reads before turning the bus around for writes
system.mem_ctrls0.rdPerTurnAround::gmean    47.768044                       # Reads before turning the bus around for writes
system.mem_ctrls0.rdPerTurnAround::stdev   114.913271                       # Reads before turning the bus around for writes
system.mem_ctrls0.rdPerTurnAround::0-1023        31858     99.99%     99.99% # Reads before turning the bus around for writes
system.mem_ctrls0.rdPerTurnAround::1024-2047            2      0.01%    100.00% # Reads before turning the bus around for writes
system.mem_ctrls0.rdPerTurnAround::19456-20479            1      0.00%    100.00% # Reads before turning the bus around for writes
system.mem_ctrls0.rdPerTurnAround::total        31861                       # Reads before turning the bus around for writes
system.mem_ctrls0.wrPerTurnAround::samples        31861                       # Writes before turning the bus around for reads
system.mem_ctrls0.wrPerTurnAround::mean     17.158815                       # Writes before turning the bus around for reads
system.mem_ctrls0.wrPerTurnAround::gmean    17.126272                       # Writes before turning the bus around for reads
system.mem_ctrls0.wrPerTurnAround::stdev     1.056181                       # Writes before turning the bus around for reads
system.mem_ctrls0.wrPerTurnAround::16           13887     43.59%     43.59% # Writes before turning the bus around for reads
system.mem_ctrls0.wrPerTurnAround::17             590      1.85%     45.44% # Writes before turning the bus around for reads
system.mem_ctrls0.wrPerTurnAround::18           15942     50.04%     95.47% # Writes before turning the bus around for reads
system.mem_ctrls0.wrPerTurnAround::19            1337      4.20%     99.67% # Writes before turning the bus around for reads
system.mem_ctrls0.wrPerTurnAround::20              99      0.31%     99.98% # Writes before turning the bus around for reads
system.mem_ctrls0.wrPerTurnAround::21               5      0.02%    100.00% # Writes before turning the bus around for reads
system.mem_ctrls0.wrPerTurnAround::31               1      0.00%    100.00% # Writes before turning the bus around for reads
system.mem_ctrls0.wrPerTurnAround::total        31861                       # Writes before turning the bus around for reads
system.mem_ctrls0.totQLat                 86649165794                       # Total ticks spent queuing
system.mem_ctrls0.totMemAccLat           116955053294                       # Total ticks spent from burst creation until serviced by the DRAM
system.mem_ctrls0.totBusLat                8081570000                       # Total ticks spent in databus transfers
system.mem_ctrls0.avgQLat                    53609.12                       # Average queueing delay per DRAM burst
system.mem_ctrls0.avgBusLat                   5000.00                       # Average bus latency per DRAM burst
system.mem_ctrls0.avgMemAccLat               72359.12                       # Average memory access latency per DRAM burst
system.mem_ctrls0.avgRdBW                       69.32                       # Average DRAM read bandwidth in MiByte/s
system.mem_ctrls0.avgWrBW                       23.45                       # Average achieved write bandwidth in MiByte/s
system.mem_ctrls0.avgRdBWSys                    69.33                       # Average system read bandwidth in MiByte/s
system.mem_ctrls0.avgWrBWSys                    23.45                       # Average system write bandwidth in MiByte/s
system.mem_ctrls0.peakBW                     12800.00                       # Theoretical peak bandwidth in MiByte/s
system.mem_ctrls0.busUtil                        0.72                       # Data bus utilization in percentage
system.mem_ctrls0.busUtilRead                    0.54                       # Data bus utilization in percentage for reads
system.mem_ctrls0.busUtilWrite                   0.18                       # Data bus utilization in percentage for writes
system.mem_ctrls0.avgRdQLen                      1.01                       # Average read queue length when enqueuing
system.mem_ctrls0.avgWrQLen                     24.40                       # Average write queue length when enqueuing
system.mem_ctrls0.readRowHits                   32651                       # Number of row buffer hits during reads
system.mem_ctrls0.writeRowHits                 170904                       # Number of row buffer hits during writes
system.mem_ctrls0.readRowHitRate                 2.02                       # Row buffer hit rate for reads
system.mem_ctrls0.writeRowHitRate               31.26                       # Row buffer hit rate for writes
system.mem_ctrls0.avgGap                    689777.10                       # Average gap between requests
system.mem_ctrls0.pageHitRate                    9.41                       # Row buffer hit rate, read and write combined
system.mem_ctrls0_0.actEnergy              7071748740                       # Energy for activate commands per rank (pJ)
system.mem_ctrls0_0.preEnergy              3758700825                       # Energy for precharge commands per rank (pJ)
system.mem_ctrls0_0.readEnergy             5845289520                       # Energy for read commands per rank (pJ)
system.mem_ctrls0_0.writeEnergy            1436653620                       # Energy for write commands per rank (pJ)
system.mem_ctrls0_0.refreshEnergy        119697452160.000031                       # Energy for refresh commands per rank (pJ)
system.mem_ctrls0_0.actBackEnergy         63249115770                       # Energy for active background per rank (pJ)
system.mem_ctrls0_0.preBackEnergy          6145755360                       # Energy for precharge background per rank (pJ)
system.mem_ctrls0_0.actPowerDownEnergy   327072118380                       # Energy for active power-down per rank (pJ)
system.mem_ctrls0_0.prePowerDownEnergy   162761961600                       # Energy for precharge power-down per rank (pJ)
system.mem_ctrls0_0.selfRefreshEnergy     63938199210                       # Energy for self refresh per rank (pJ)
system.mem_ctrls0_0.totalEnergy          761022516735                       # Total energy per rank (pJ)
system.mem_ctrls0_0.averagePower           509.996587                       # Core power per rank (mW)
system.mem_ctrls0_0.totalIdleTime        1337403843803                       # Total Idle time Per DRAM Rank
system.mem_ctrls0_0.memoryStateTime::IDLE   8838301210                       # Time in different power states
system.mem_ctrls0_0.memoryStateTime::REF  50820040000                       # Time in different power states
system.mem_ctrls0_0.memoryStateTime::SREF 196278441049                       # Time in different power states
system.mem_ctrls0_0.memoryStateTime::PRE_PDN 423860116714                       # Time in different power states
system.mem_ctrls0_0.memoryStateTime::ACT  95148529107                       # Time in different power states
system.mem_ctrls0_0.memoryStateTime::ACT_PDN 717265548905                       # Time in different power states
system.mem_ctrls0_1.actEnergy              6918767100                       # Energy for activate commands per rank (pJ)
system.mem_ctrls0_1.preEnergy              3677389155                       # Energy for precharge commands per rank (pJ)
system.mem_ctrls0_1.readEnergy             5695192440                       # Energy for read commands per rank (pJ)
system.mem_ctrls0_1.writeEnergy            1417104720                       # Energy for write commands per rank (pJ)
system.mem_ctrls0_1.refreshEnergy        120616338960.000031                       # Energy for refresh commands per rank (pJ)
system.mem_ctrls0_1.actBackEnergy         62379285510                       # Energy for active background per rank (pJ)
system.mem_ctrls0_1.preBackEnergy          5925207360                       # Energy for precharge background per rank (pJ)
system.mem_ctrls0_1.actPowerDownEnergy   327528398250                       # Energy for active power-down per rank (pJ)
system.mem_ctrls0_1.prePowerDownEnergy   171025395840                       # Energy for precharge power-down per rank (pJ)
system.mem_ctrls0_1.selfRefreshEnergy     58491760230                       # Energy for self refresh per rank (pJ)
system.mem_ctrls0_1.totalEnergy          763729276455                       # Total energy per rank (pJ)
system.mem_ctrls0_1.averagePower           511.810509                       # Core power per rank (mW)
system.mem_ctrls0_1.totalIdleTime        1339864210812                       # Total Idle time Per DRAM Rank
system.mem_ctrls0_1.memoryStateTime::IDLE   8572028357                       # Time in different power states
system.mem_ctrls0_1.memoryStateTime::REF  51203226000                       # Time in different power states
system.mem_ctrls0_1.memoryStateTime::SREF 176220247129                       # Time in different power states
system.mem_ctrls0_1.memoryStateTime::PRE_PDN 445380147331                       # Time in different power states
system.mem_ctrls0_1.memoryStateTime::ACT  92570676621                       # Time in different power states
system.mem_ctrls0_1.memoryStateTime::ACT_PDN 718264651547                       # Time in different power states
system.mem_ctrls1.pwrStateResidencyTicks::UNDEFINED 34795588901346                       # Cumulative time (in ticks) in various power states
system.mem_ctrls1.bytes_read::cpu.inst             64                       # Number of bytes read from this memory
system.mem_ctrls1.bytes_read::cpu.data            192                       # Number of bytes read from this memory
system.mem_ctrls1.bytes_read::switch_cpus.inst         8128                       # Number of bytes read from this memory
system.mem_ctrls1.bytes_read::switch_cpus.data     85904704                       # Number of bytes read from this memory
system.mem_ctrls1.bytes_read::switch_cpus_1.data     17600768                       # Number of bytes read from this memory
system.mem_ctrls1.bytes_read::total         103513856                       # Number of bytes read from this memory
system.mem_ctrls1.bytes_inst_read::cpu.inst           64                       # Number of instructions bytes read from this memory
system.mem_ctrls1.bytes_inst_read::switch_cpus.inst         8128                       # Number of instructions bytes read from this memory
system.mem_ctrls1.bytes_inst_read::total         8192                       # Number of instructions bytes read from this memory
system.mem_ctrls1.bytes_written::writebacks     35002752                       # Number of bytes written to this memory
system.mem_ctrls1.bytes_written::total       35002752                       # Number of bytes written to this memory
system.mem_ctrls1.num_reads::cpu.inst               1                       # Number of read requests responded to by this memory
system.mem_ctrls1.num_reads::cpu.data               3                       # Number of read requests responded to by this memory
system.mem_ctrls1.num_reads::switch_cpus.inst          127                       # Number of read requests responded to by this memory
system.mem_ctrls1.num_reads::switch_cpus.data      1342261                       # Number of read requests responded to by this memory
system.mem_ctrls1.num_reads::switch_cpus_1.data       275012                       # Number of read requests responded to by this memory
system.mem_ctrls1.num_reads::total            1617404                       # Number of read requests responded to by this memory
system.mem_ctrls1.num_writes::writebacks       546918                       # Number of write requests responded to by this memory
system.mem_ctrls1.num_writes::total            546918                       # Number of write requests responded to by this memory
system.mem_ctrls1.bw_read::cpu.inst                43                       # Total read bandwidth from this memory (bytes/s)
system.mem_ctrls1.bw_read::cpu.data               129                       # Total read bandwidth from this memory (bytes/s)
system.mem_ctrls1.bw_read::switch_cpus.inst         5447                       # Total read bandwidth from this memory (bytes/s)
system.mem_ctrls1.bw_read::switch_cpus.data     57568739                       # Total read bandwidth from this memory (bytes/s)
system.mem_ctrls1.bw_read::switch_cpus_1.data     11795094                       # Total read bandwidth from this memory (bytes/s)
system.mem_ctrls1.bw_read::total             69369451                       # Total read bandwidth from this memory (bytes/s)
system.mem_ctrls1.bw_inst_read::cpu.inst           43                       # Instruction read bandwidth from this memory (bytes/s)
system.mem_ctrls1.bw_inst_read::switch_cpus.inst         5447                       # Instruction read bandwidth from this memory (bytes/s)
system.mem_ctrls1.bw_inst_read::total            5490                       # Instruction read bandwidth from this memory (bytes/s)
system.mem_ctrls1.bw_write::writebacks       23456973                       # Write bandwidth from this memory (bytes/s)
system.mem_ctrls1.bw_write::total            23456973                       # Write bandwidth from this memory (bytes/s)
system.mem_ctrls1.bw_total::writebacks       23456973                       # Total bandwidth to/from this memory (bytes/s)
system.mem_ctrls1.bw_total::cpu.inst               43                       # Total bandwidth to/from this memory (bytes/s)
system.mem_ctrls1.bw_total::cpu.data              129                       # Total bandwidth to/from this memory (bytes/s)
system.mem_ctrls1.bw_total::switch_cpus.inst         5447                       # Total bandwidth to/from this memory (bytes/s)
system.mem_ctrls1.bw_total::switch_cpus.data     57568739                       # Total bandwidth to/from this memory (bytes/s)
system.mem_ctrls1.bw_total::switch_cpus_1.data     11795094                       # Total bandwidth to/from this memory (bytes/s)
system.mem_ctrls1.bw_total::total            92826423                       # Total bandwidth to/from this memory (bytes/s)
system.mem_ctrls1.readReqs                    1617404                       # Number of read requests accepted
system.mem_ctrls1.writeReqs                    546918                       # Number of write requests accepted
system.mem_ctrls1.readBursts                  1617404                       # Number of DRAM read bursts, including those serviced by the write queue
system.mem_ctrls1.writeBursts                  546918                       # Number of DRAM write bursts, including those merged in the write queue
system.mem_ctrls1.bytesReadDRAM             103496896                       # Total number of bytes read from DRAM
system.mem_ctrls1.bytesReadWrQ                  16960                       # Total number of bytes read from write queue
system.mem_ctrls1.bytesWritten               35001600                       # Total number of bytes written to DRAM
system.mem_ctrls1.bytesReadSys              103513856                       # Total read bytes from the system interface side
system.mem_ctrls1.bytesWrittenSys            35002752                       # Total written bytes from the system interface side
system.mem_ctrls1.servicedByWrQ                   265                       # Number of DRAM read bursts serviced by the write queue
system.mem_ctrls1.mergedWrBursts                    0                       # Number of DRAM write bursts merged with an existing one
system.mem_ctrls1.neitherReadNorWriteReqs            0                       # Number of requests that are neither read nor write
system.mem_ctrls1.perBankRdBursts::0           105597                       # Per bank write bursts
system.mem_ctrls1.perBankRdBursts::1           103222                       # Per bank write bursts
system.mem_ctrls1.perBankRdBursts::2           103855                       # Per bank write bursts
system.mem_ctrls1.perBankRdBursts::3           101047                       # Per bank write bursts
system.mem_ctrls1.perBankRdBursts::4           101639                       # Per bank write bursts
system.mem_ctrls1.perBankRdBursts::5           101589                       # Per bank write bursts
system.mem_ctrls1.perBankRdBursts::6           100855                       # Per bank write bursts
system.mem_ctrls1.perBankRdBursts::7           101407                       # Per bank write bursts
system.mem_ctrls1.perBankRdBursts::8           100382                       # Per bank write bursts
system.mem_ctrls1.perBankRdBursts::9            98857                       # Per bank write bursts
system.mem_ctrls1.perBankRdBursts::10           99172                       # Per bank write bursts
system.mem_ctrls1.perBankRdBursts::11           99416                       # Per bank write bursts
system.mem_ctrls1.perBankRdBursts::12           98217                       # Per bank write bursts
system.mem_ctrls1.perBankRdBursts::13           98364                       # Per bank write bursts
system.mem_ctrls1.perBankRdBursts::14          100211                       # Per bank write bursts
system.mem_ctrls1.perBankRdBursts::15          103309                       # Per bank write bursts
system.mem_ctrls1.perBankWrBursts::0            36485                       # Per bank write bursts
system.mem_ctrls1.perBankWrBursts::1            35319                       # Per bank write bursts
system.mem_ctrls1.perBankWrBursts::2            34876                       # Per bank write bursts
system.mem_ctrls1.perBankWrBursts::3            33739                       # Per bank write bursts
system.mem_ctrls1.perBankWrBursts::4            33650                       # Per bank write bursts
system.mem_ctrls1.perBankWrBursts::5            33698                       # Per bank write bursts
system.mem_ctrls1.perBankWrBursts::6            33583                       # Per bank write bursts
system.mem_ctrls1.perBankWrBursts::7            33997                       # Per bank write bursts
system.mem_ctrls1.perBankWrBursts::8            33570                       # Per bank write bursts
system.mem_ctrls1.perBankWrBursts::9            33308                       # Per bank write bursts
system.mem_ctrls1.perBankWrBursts::10           33861                       # Per bank write bursts
system.mem_ctrls1.perBankWrBursts::11           33721                       # Per bank write bursts
system.mem_ctrls1.perBankWrBursts::12           33525                       # Per bank write bursts
system.mem_ctrls1.perBankWrBursts::13           33645                       # Per bank write bursts
system.mem_ctrls1.perBankWrBursts::14           34336                       # Per bank write bursts
system.mem_ctrls1.perBankWrBursts::15           35587                       # Per bank write bursts
system.mem_ctrls1.numRdRetry                        0                       # Number of times read queue was full causing retry
system.mem_ctrls1.numWrRetry                        0                       # Number of times write queue was full causing retry
system.mem_ctrls1.totGap                 1492210597698                       # Total gap between requests
system.mem_ctrls1.readPktSize::0                    0                       # Read request sizes (log2)
system.mem_ctrls1.readPktSize::1                    0                       # Read request sizes (log2)
system.mem_ctrls1.readPktSize::2                    0                       # Read request sizes (log2)
system.mem_ctrls1.readPktSize::3                    0                       # Read request sizes (log2)
system.mem_ctrls1.readPktSize::4                    0                       # Read request sizes (log2)
system.mem_ctrls1.readPktSize::5                    0                       # Read request sizes (log2)
system.mem_ctrls1.readPktSize::6              1617404                       # Read request sizes (log2)
system.mem_ctrls1.writePktSize::0                   0                       # Write request sizes (log2)
system.mem_ctrls1.writePktSize::1                   0                       # Write request sizes (log2)
system.mem_ctrls1.writePktSize::2                   0                       # Write request sizes (log2)
system.mem_ctrls1.writePktSize::3                   0                       # Write request sizes (log2)
system.mem_ctrls1.writePktSize::4                   0                       # Write request sizes (log2)
system.mem_ctrls1.writePktSize::5                   0                       # Write request sizes (log2)
system.mem_ctrls1.writePktSize::6              546918                       # Write request sizes (log2)
system.mem_ctrls1.rdQLenPdf::0                1512996                       # What read queue length does an incoming req see
system.mem_ctrls1.rdQLenPdf::1                  92383                       # What read queue length does an incoming req see
system.mem_ctrls1.rdQLenPdf::2                  11057                       # What read queue length does an incoming req see
system.mem_ctrls1.rdQLenPdf::3                    703                       # What read queue length does an incoming req see
system.mem_ctrls1.rdQLenPdf::4                      0                       # What read queue length does an incoming req see
system.mem_ctrls1.rdQLenPdf::5                      0                       # What read queue length does an incoming req see
system.mem_ctrls1.rdQLenPdf::6                      0                       # What read queue length does an incoming req see
system.mem_ctrls1.rdQLenPdf::7                      0                       # What read queue length does an incoming req see
system.mem_ctrls1.rdQLenPdf::8                      0                       # What read queue length does an incoming req see
system.mem_ctrls1.rdQLenPdf::9                      0                       # What read queue length does an incoming req see
system.mem_ctrls1.rdQLenPdf::10                     0                       # What read queue length does an incoming req see
system.mem_ctrls1.rdQLenPdf::11                     0                       # What read queue length does an incoming req see
system.mem_ctrls1.rdQLenPdf::12                     0                       # What read queue length does an incoming req see
system.mem_ctrls1.rdQLenPdf::13                     0                       # What read queue length does an incoming req see
system.mem_ctrls1.rdQLenPdf::14                     0                       # What read queue length does an incoming req see
system.mem_ctrls1.rdQLenPdf::15                     0                       # What read queue length does an incoming req see
system.mem_ctrls1.rdQLenPdf::16                     0                       # What read queue length does an incoming req see
system.mem_ctrls1.rdQLenPdf::17                     0                       # What read queue length does an incoming req see
system.mem_ctrls1.rdQLenPdf::18                     0                       # What read queue length does an incoming req see
system.mem_ctrls1.rdQLenPdf::19                     0                       # What read queue length does an incoming req see
system.mem_ctrls1.rdQLenPdf::20                     0                       # What read queue length does an incoming req see
system.mem_ctrls1.rdQLenPdf::21                     0                       # What read queue length does an incoming req see
system.mem_ctrls1.rdQLenPdf::22                     0                       # What read queue length does an incoming req see
system.mem_ctrls1.rdQLenPdf::23                     0                       # What read queue length does an incoming req see
system.mem_ctrls1.rdQLenPdf::24                     0                       # What read queue length does an incoming req see
system.mem_ctrls1.rdQLenPdf::25                     0                       # What read queue length does an incoming req see
system.mem_ctrls1.rdQLenPdf::26                     0                       # What read queue length does an incoming req see
system.mem_ctrls1.rdQLenPdf::27                     0                       # What read queue length does an incoming req see
system.mem_ctrls1.rdQLenPdf::28                     0                       # What read queue length does an incoming req see
system.mem_ctrls1.rdQLenPdf::29                     0                       # What read queue length does an incoming req see
system.mem_ctrls1.rdQLenPdf::30                     0                       # What read queue length does an incoming req see
system.mem_ctrls1.rdQLenPdf::31                     0                       # What read queue length does an incoming req see
system.mem_ctrls1.wrQLenPdf::0                      2                       # What write queue length does an incoming req see
system.mem_ctrls1.wrQLenPdf::1                      2                       # What write queue length does an incoming req see
system.mem_ctrls1.wrQLenPdf::2                      2                       # What write queue length does an incoming req see
system.mem_ctrls1.wrQLenPdf::3                      2                       # What write queue length does an incoming req see
system.mem_ctrls1.wrQLenPdf::4                      2                       # What write queue length does an incoming req see
system.mem_ctrls1.wrQLenPdf::5                      2                       # What write queue length does an incoming req see
system.mem_ctrls1.wrQLenPdf::6                      2                       # What write queue length does an incoming req see
system.mem_ctrls1.wrQLenPdf::7                      2                       # What write queue length does an incoming req see
system.mem_ctrls1.wrQLenPdf::8                      2                       # What write queue length does an incoming req see
system.mem_ctrls1.wrQLenPdf::9                      2                       # What write queue length does an incoming req see
system.mem_ctrls1.wrQLenPdf::10                     2                       # What write queue length does an incoming req see
system.mem_ctrls1.wrQLenPdf::11                     2                       # What write queue length does an incoming req see
system.mem_ctrls1.wrQLenPdf::12                     2                       # What write queue length does an incoming req see
system.mem_ctrls1.wrQLenPdf::13                     2                       # What write queue length does an incoming req see
system.mem_ctrls1.wrQLenPdf::14                     2                       # What write queue length does an incoming req see
system.mem_ctrls1.wrQLenPdf::15                 17361                       # What write queue length does an incoming req see
system.mem_ctrls1.wrQLenPdf::16                 18099                       # What write queue length does an incoming req see
system.mem_ctrls1.wrQLenPdf::17                 30399                       # What write queue length does an incoming req see
system.mem_ctrls1.wrQLenPdf::18                 31834                       # What write queue length does an incoming req see
system.mem_ctrls1.wrQLenPdf::19                 32044                       # What write queue length does an incoming req see
system.mem_ctrls1.wrQLenPdf::20                 32051                       # What write queue length does an incoming req see
system.mem_ctrls1.wrQLenPdf::21                 32048                       # What write queue length does an incoming req see
system.mem_ctrls1.wrQLenPdf::22                 32047                       # What write queue length does an incoming req see
system.mem_ctrls1.wrQLenPdf::23                 32065                       # What write queue length does an incoming req see
system.mem_ctrls1.wrQLenPdf::24                 32071                       # What write queue length does an incoming req see
system.mem_ctrls1.wrQLenPdf::25                 32051                       # What write queue length does an incoming req see
system.mem_ctrls1.wrQLenPdf::26                 32031                       # What write queue length does an incoming req see
system.mem_ctrls1.wrQLenPdf::27                 32113                       # What write queue length does an incoming req see
system.mem_ctrls1.wrQLenPdf::28                 32412                       # What write queue length does an incoming req see
system.mem_ctrls1.wrQLenPdf::29                 32354                       # What write queue length does an incoming req see
system.mem_ctrls1.wrQLenPdf::30                 32034                       # What write queue length does an incoming req see
system.mem_ctrls1.wrQLenPdf::31                 31895                       # What write queue length does an incoming req see
system.mem_ctrls1.wrQLenPdf::32                 31872                       # What write queue length does an incoming req see
system.mem_ctrls1.wrQLenPdf::33                    95                       # What write queue length does an incoming req see
system.mem_ctrls1.wrQLenPdf::34                    11                       # What write queue length does an incoming req see
system.mem_ctrls1.wrQLenPdf::35                     1                       # What write queue length does an incoming req see
system.mem_ctrls1.wrQLenPdf::36                     0                       # What write queue length does an incoming req see
system.mem_ctrls1.wrQLenPdf::37                     0                       # What write queue length does an incoming req see
system.mem_ctrls1.wrQLenPdf::38                     0                       # What write queue length does an incoming req see
system.mem_ctrls1.wrQLenPdf::39                     0                       # What write queue length does an incoming req see
system.mem_ctrls1.wrQLenPdf::40                     0                       # What write queue length does an incoming req see
system.mem_ctrls1.wrQLenPdf::41                     0                       # What write queue length does an incoming req see
system.mem_ctrls1.wrQLenPdf::42                     0                       # What write queue length does an incoming req see
system.mem_ctrls1.wrQLenPdf::43                     0                       # What write queue length does an incoming req see
system.mem_ctrls1.wrQLenPdf::44                     0                       # What write queue length does an incoming req see
system.mem_ctrls1.wrQLenPdf::45                     0                       # What write queue length does an incoming req see
system.mem_ctrls1.wrQLenPdf::46                     0                       # What write queue length does an incoming req see
system.mem_ctrls1.wrQLenPdf::47                     0                       # What write queue length does an incoming req see
system.mem_ctrls1.wrQLenPdf::48                     0                       # What write queue length does an incoming req see
system.mem_ctrls1.wrQLenPdf::49                     0                       # What write queue length does an incoming req see
system.mem_ctrls1.wrQLenPdf::50                     0                       # What write queue length does an incoming req see
system.mem_ctrls1.wrQLenPdf::51                     0                       # What write queue length does an incoming req see
system.mem_ctrls1.wrQLenPdf::52                     0                       # What write queue length does an incoming req see
system.mem_ctrls1.wrQLenPdf::53                     0                       # What write queue length does an incoming req see
system.mem_ctrls1.wrQLenPdf::54                     0                       # What write queue length does an incoming req see
system.mem_ctrls1.wrQLenPdf::55                     0                       # What write queue length does an incoming req see
system.mem_ctrls1.wrQLenPdf::56                     0                       # What write queue length does an incoming req see
system.mem_ctrls1.wrQLenPdf::57                     0                       # What write queue length does an incoming req see
system.mem_ctrls1.wrQLenPdf::58                     0                       # What write queue length does an incoming req see
system.mem_ctrls1.wrQLenPdf::59                     0                       # What write queue length does an incoming req see
system.mem_ctrls1.wrQLenPdf::60                     0                       # What write queue length does an incoming req see
system.mem_ctrls1.wrQLenPdf::61                     0                       # What write queue length does an incoming req see
system.mem_ctrls1.wrQLenPdf::62                     0                       # What write queue length does an incoming req see
system.mem_ctrls1.wrQLenPdf::63                     0                       # What write queue length does an incoming req see
system.mem_ctrls1.bytesPerActivate::samples      1960179                       # Bytes accessed per row activation
system.mem_ctrls1.bytesPerActivate::mean    70.655588                       # Bytes accessed per row activation
system.mem_ctrls1.bytesPerActivate::gmean    67.817724                       # Bytes accessed per row activation
system.mem_ctrls1.bytesPerActivate::stdev    30.979368                       # Bytes accessed per row activation
system.mem_ctrls1.bytesPerActivate::0-127      1833972     93.56%     93.56% # Bytes accessed per row activation
system.mem_ctrls1.bytesPerActivate::128-255       106539      5.44%     99.00% # Bytes accessed per row activation
system.mem_ctrls1.bytesPerActivate::256-383        16096      0.82%     99.82% # Bytes accessed per row activation
system.mem_ctrls1.bytesPerActivate::384-511         2936      0.15%     99.97% # Bytes accessed per row activation
system.mem_ctrls1.bytesPerActivate::512-639          489      0.02%     99.99% # Bytes accessed per row activation
system.mem_ctrls1.bytesPerActivate::640-767          113      0.01%    100.00% # Bytes accessed per row activation
system.mem_ctrls1.bytesPerActivate::768-895           23      0.00%    100.00% # Bytes accessed per row activation
system.mem_ctrls1.bytesPerActivate::896-1023            6      0.00%    100.00% # Bytes accessed per row activation
system.mem_ctrls1.bytesPerActivate::1024-1151            5      0.00%    100.00% # Bytes accessed per row activation
system.mem_ctrls1.bytesPerActivate::total      1960179                       # Bytes accessed per row activation
system.mem_ctrls1.rdPerTurnAround::samples        31865                       # Reads before turning the bus around for writes
system.mem_ctrls1.rdPerTurnAround::mean     50.749600                       # Reads before turning the bus around for writes
system.mem_ctrls1.rdPerTurnAround::gmean    47.794083                       # Reads before turning the bus around for writes
system.mem_ctrls1.rdPerTurnAround::stdev   115.102567                       # Reads before turning the bus around for writes
system.mem_ctrls1.rdPerTurnAround::0-1023        31860     99.98%     99.98% # Reads before turning the bus around for writes
system.mem_ctrls1.rdPerTurnAround::1024-2047            4      0.01%    100.00% # Reads before turning the bus around for writes
system.mem_ctrls1.rdPerTurnAround::19456-20479            1      0.00%    100.00% # Reads before turning the bus around for writes
system.mem_ctrls1.rdPerTurnAround::total        31865                       # Reads before turning the bus around for writes
system.mem_ctrls1.wrPerTurnAround::samples        31865                       # Writes before turning the bus around for reads
system.mem_ctrls1.wrPerTurnAround::mean     17.163032                       # Writes before turning the bus around for reads
system.mem_ctrls1.wrPerTurnAround::gmean    17.130632                       # Writes before turning the bus around for reads
system.mem_ctrls1.wrPerTurnAround::stdev     1.053223                       # Writes before turning the bus around for reads
system.mem_ctrls1.wrPerTurnAround::16           13802     43.31%     43.31% # Writes before turning the bus around for reads
system.mem_ctrls1.wrPerTurnAround::17             591      1.85%     45.17% # Writes before turning the bus around for reads
system.mem_ctrls1.wrPerTurnAround::18           16086     50.48%     95.65% # Writes before turning the bus around for reads
system.mem_ctrls1.wrPerTurnAround::19            1264      3.97%     99.62% # Writes before turning the bus around for reads
system.mem_ctrls1.wrPerTurnAround::20             111      0.35%     99.97% # Writes before turning the bus around for reads
system.mem_ctrls1.wrPerTurnAround::21               9      0.03%     99.99% # Writes before turning the bus around for reads
system.mem_ctrls1.wrPerTurnAround::22               1      0.00%    100.00% # Writes before turning the bus around for reads
system.mem_ctrls1.wrPerTurnAround::26               1      0.00%    100.00% # Writes before turning the bus around for reads
system.mem_ctrls1.wrPerTurnAround::total        31865                       # Writes before turning the bus around for reads
system.mem_ctrls1.totQLat                 86237155912                       # Total ticks spent queuing
system.mem_ctrls1.totMemAccLat           116558512162                       # Total ticks spent from burst creation until serviced by the DRAM
system.mem_ctrls1.totBusLat                8085695000                       # Total ticks spent in databus transfers
system.mem_ctrls1.avgQLat                    53326.99                       # Average queueing delay per DRAM burst
system.mem_ctrls1.avgBusLat                   5000.00                       # Average bus latency per DRAM burst
system.mem_ctrls1.avgMemAccLat               72076.99                       # Average memory access latency per DRAM burst
system.mem_ctrls1.avgRdBW                       69.36                       # Average DRAM read bandwidth in MiByte/s
system.mem_ctrls1.avgWrBW                       23.46                       # Average achieved write bandwidth in MiByte/s
system.mem_ctrls1.avgRdBWSys                    69.37                       # Average system read bandwidth in MiByte/s
system.mem_ctrls1.avgWrBWSys                    23.46                       # Average system write bandwidth in MiByte/s
system.mem_ctrls1.peakBW                     12800.00                       # Theoretical peak bandwidth in MiByte/s
system.mem_ctrls1.busUtil                        0.73                       # Data bus utilization in percentage
system.mem_ctrls1.busUtilRead                    0.54                       # Data bus utilization in percentage for reads
system.mem_ctrls1.busUtilWrite                   0.18                       # Data bus utilization in percentage for writes
system.mem_ctrls1.avgRdQLen                      1.01                       # Average read queue length when enqueuing
system.mem_ctrls1.avgWrQLen                     24.41                       # Average write queue length when enqueuing
system.mem_ctrls1.readRowHits                   32746                       # Number of row buffer hits during reads
system.mem_ctrls1.writeRowHits                 171103                       # Number of row buffer hits during writes
system.mem_ctrls1.readRowHitRate                 2.02                       # Row buffer hit rate for reads
system.mem_ctrls1.writeRowHitRate               31.28                       # Row buffer hit rate for writes
system.mem_ctrls1.avgGap                    689458.68                       # Average gap between requests
system.mem_ctrls1.pageHitRate                    9.42                       # Row buffer hit rate, read and write combined
system.mem_ctrls1_0.actEnergy              7074047820                       # Energy for activate commands per rank (pJ)
system.mem_ctrls1_0.preEnergy              3759922815                       # Energy for precharge commands per rank (pJ)
system.mem_ctrls1_0.readEnergy             5849166540                       # Energy for read commands per rank (pJ)
system.mem_ctrls1_0.writeEnergy            1437311340                       # Energy for write commands per rank (pJ)
system.mem_ctrls1_0.refreshEnergy        119655042000.000031                       # Energy for refresh commands per rank (pJ)
system.mem_ctrls1_0.actBackEnergy         63349247100                       # Energy for active background per rank (pJ)
system.mem_ctrls1_0.preBackEnergy          6142680000                       # Energy for precharge background per rank (pJ)
system.mem_ctrls1_0.actPowerDownEnergy   327332014440                       # Energy for active power-down per rank (pJ)
system.mem_ctrls1_0.prePowerDownEnergy   162635762400                       # Energy for precharge power-down per rank (pJ)
system.mem_ctrls1_0.selfRefreshEnergy     63753584430                       # Energy for self refresh per rank (pJ)
system.mem_ctrls1_0.totalEnergy          761032303035                       # Total energy per rank (pJ)
system.mem_ctrls1_0.averagePower           510.003147                       # Core power per rank (mW)
system.mem_ctrls1_0.totalIdleTime        1337193958482                       # Total Idle time Per DRAM Rank
system.mem_ctrls1_0.memoryStateTime::IDLE   8815348847                       # Time in different power states
system.mem_ctrls1_0.memoryStateTime::REF  50801272000                       # Time in different power states
system.mem_ctrls1_0.memoryStateTime::SREF 195829704301                       # Time in different power states
system.mem_ctrls1_0.memoryStateTime::PRE_PDN 423532233443                       # Time in different power states
system.mem_ctrls1_0.memoryStateTime::ACT  95399881808                       # Time in different power states
system.mem_ctrls1_0.memoryStateTime::ACT_PDN 717832536586                       # Time in different power states
system.mem_ctrls1_1.actEnergy              6921708780                       # Energy for activate commands per rank (pJ)
system.mem_ctrls1_1.preEnergy              3678956490                       # Energy for precharge commands per rank (pJ)
system.mem_ctrls1_1.readEnergy             5697205920                       # Energy for read commands per rank (pJ)
system.mem_ctrls1_1.writeEnergy            1417506660                       # Energy for write commands per rank (pJ)
system.mem_ctrls1_1.refreshEnergy        120539508960.000031                       # Energy for refresh commands per rank (pJ)
system.mem_ctrls1_1.actBackEnergy         62527663920                       # Energy for active background per rank (pJ)
system.mem_ctrls1_1.preBackEnergy          5894264640                       # Energy for precharge background per rank (pJ)
system.mem_ctrls1_1.actPowerDownEnergy   327447608160                       # Energy for active power-down per rank (pJ)
system.mem_ctrls1_1.prePowerDownEnergy   170986236960                       # Energy for precharge power-down per rank (pJ)
system.mem_ctrls1_1.selfRefreshEnergy     58429402935                       # Energy for self refresh per rank (pJ)
system.mem_ctrls1_1.totalEnergy          763595980725                       # Total energy per rank (pJ)
system.mem_ctrls1_1.averagePower           511.721188                       # Core power per rank (mW)
system.mem_ctrls1_1.totalIdleTime        1339612937342                       # Total Idle time Per DRAM Rank
system.mem_ctrls1_1.memoryStateTime::IDLE   8510312159                       # Time in different power states
system.mem_ctrls1_1.memoryStateTime::REF  51169754000                       # Time in different power states
system.mem_ctrls1_1.memoryStateTime::SREF 176251251801                       # Time in different power states
system.mem_ctrls1_1.memoryStateTime::PRE_PDN 445277599145                       # Time in different power states
system.mem_ctrls1_1.memoryStateTime::ACT  92917804422                       # Time in different power states
system.mem_ctrls1_1.memoryStateTime::ACT_PDN 718084255458                       # Time in different power states
system.pwrStateResidencyTicks::UNDEFINED 34795588901346                       # Cumulative time (in ticks) in various power states
system.cpu.branchPred.lookups                       0                       # Number of BP lookups
system.cpu.branchPred.condPredicted                 0                       # Number of conditional branches predicted
system.cpu.branchPred.condIncorrect                 0                       # Number of conditional branches incorrect
system.cpu.branchPred.BTBLookups                    0                       # Number of BTB lookups
system.cpu.branchPred.BTBHits                       0                       # Number of BTB hits
system.cpu.branchPred.BTBCorrect                    0                       # Number of correct BTB predictions (this stat may not work properly.
system.cpu.branchPred.BTBHitPct                   nan                       # BTB Hit Percentage
system.cpu.branchPred.usedRAS                       0                       # Number of times the RAS was used to get a target.
system.cpu.branchPred.RASInCorrect                  0                       # Number of incorrect RAS predictions.
system.cpu.branchPred.indirectLookups               0                       # Number of indirect predictor lookups.
system.cpu.branchPred.indirectHits                  0                       # Number of indirect target hits.
system.cpu.branchPred.indirectMisses                0                       # Number of indirect misses.
system.cpu.branchPredindirectMispredicted            0                       # Number of mispredicted indirect branches.
system.cpu_voltage_domain.voltage                   1                       # Voltage in Volts
system.cpu_clk_domain.clock                       333                       # Clock period in ticks
system.cpu.dtb.fetch_hits                           0                       # ITB hits
system.cpu.dtb.fetch_misses                         0                       # ITB misses
system.cpu.dtb.fetch_acv                            0                       # ITB acv
system.cpu.dtb.fetch_accesses                       0                       # ITB accesses
system.cpu.dtb.read_hits                           16                       # DTB read hits
system.cpu.dtb.read_misses                          0                       # DTB read misses
system.cpu.dtb.read_acv                             0                       # DTB read access violations
system.cpu.dtb.read_accesses                       16                       # DTB read accesses
system.cpu.dtb.write_hits                           1                       # DTB write hits
system.cpu.dtb.write_misses                         0                       # DTB write misses
system.cpu.dtb.write_acv                            0                       # DTB write access violations
system.cpu.dtb.write_accesses                       1                       # DTB write accesses
system.cpu.dtb.data_hits                           17                       # DTB hits
system.cpu.dtb.data_misses                          0                       # DTB misses
system.cpu.dtb.data_acv                             0                       # DTB access violations
system.cpu.dtb.data_accesses                       17                       # DTB accesses
system.cpu.itb.fetch_hits                           4                       # ITB hits
system.cpu.itb.fetch_misses                         0                       # ITB misses
system.cpu.itb.fetch_acv                            0                       # ITB acv
system.cpu.itb.fetch_accesses                       4                       # ITB accesses
system.cpu.itb.read_hits                            0                       # DTB read hits
system.cpu.itb.read_misses                          0                       # DTB read misses
system.cpu.itb.read_acv                             0                       # DTB read access violations
system.cpu.itb.read_accesses                        0                       # DTB read accesses
system.cpu.itb.write_hits                           0                       # DTB write hits
system.cpu.itb.write_misses                         0                       # DTB write misses
system.cpu.itb.write_acv                            0                       # DTB write access violations
system.cpu.itb.write_accesses                       0                       # DTB write accesses
system.cpu.itb.data_hits                            0                       # DTB hits
system.cpu.itb.data_misses                          0                       # DTB misses
system.cpu.itb.data_acv                             0                       # DTB access violations
system.cpu.itb.data_accesses                        0                       # DTB accesses
system.cpu.workload.num_syscalls                    0                       # Number of system calls
system.cpu.pwrStateResidencyTicks::ON    1492210976985                       # Cumulative time (in ticks) in various power states
system.cpu.numCycles                              796                       # number of cpu cycles simulated
system.cpu.numWorkItemsStarted                      0                       # number of work items this cpu started
system.cpu.numWorkItemsCompleted                    0                       # number of work items this cpu completed
system.cpu.fetch.icacheStallCycles                 62                       # Number of cycles fetch is stalled on an Icache miss
system.cpu.fetch.Insts                             17                       # Number of instructions fetch has processed
system.cpu.fetch.Cycles                             3                       # Number of cycles fetch has run and was not squashing or blocked
system.cpu.fetch.SquashCycles                       3                       # Number of cycles fetch has spent squashing
system.cpu.fetch.PendingDrainCycles                 6                       # Number of cycles fetch has spent waiting on pipes to drain
system.cpu.fetch.CacheLines                         4                       # Number of cache lines fetched
system.cpu.fetch.IcacheSquashes                     2                       # Number of outstanding Icache misses that were squashed
system.cpu.fetch.rateDist::samples                 72                       # Number of instructions fetched each cycle (Total)
system.cpu.fetch.rateDist::mean              0.236111                       # Number of instructions fetched each cycle (Total)
system.cpu.fetch.rateDist::stdev             1.326789                       # Number of instructions fetched each cycle (Total)
system.cpu.fetch.rateDist::underflows               0      0.00%      0.00% # Number of instructions fetched each cycle (Total)
system.cpu.fetch.rateDist::0                       69     95.83%     95.83% # Number of instructions fetched each cycle (Total)
system.cpu.fetch.rateDist::1                        1      1.39%     97.22% # Number of instructions fetched each cycle (Total)
system.cpu.fetch.rateDist::2                        0      0.00%     97.22% # Number of instructions fetched each cycle (Total)
system.cpu.fetch.rateDist::3                        0      0.00%     97.22% # Number of instructions fetched each cycle (Total)
system.cpu.fetch.rateDist::4                        0      0.00%     97.22% # Number of instructions fetched each cycle (Total)
system.cpu.fetch.rateDist::5                        0      0.00%     97.22% # Number of instructions fetched each cycle (Total)
system.cpu.fetch.rateDist::6                        0      0.00%     97.22% # Number of instructions fetched each cycle (Total)
system.cpu.fetch.rateDist::7                        0      0.00%     97.22% # Number of instructions fetched each cycle (Total)
system.cpu.fetch.rateDist::8                        2      2.78%    100.00% # Number of instructions fetched each cycle (Total)
system.cpu.fetch.rateDist::overflows                0      0.00%    100.00% # Number of instructions fetched each cycle (Total)
system.cpu.fetch.rateDist::min_value                0                       # Number of instructions fetched each cycle (Total)
[...]
system.switch_cpus_1.iq.rate                 1.619598                       # Inst issue rate
system.switch_cpus_1.iq.fu_busy_cnt          15108346                       # FU busy when requested
system.switch_cpus_1.iq.fu_busy_rate         0.073420                       # FU busy rate (busy events/executed inst)
system.switch_cpus_1.iq.int_inst_queue_reads    187516706                       # Number of integer instruction queue reads
system.switch_cpus_1.iq.int_inst_queue_writes     28245483                       # Number of integer instruction queue writes
system.switch_cpus_1.iq.int_inst_queue_wakeup_accesses     27843409                       # Number of integer instruction queue wakeup accesses
system.switch_cpus_1.iq.fp_inst_queue_reads    366244528                       # Number of floating instruction queue reads
system.switch_cpus_1.iq.fp_inst_queue_writes    173990764                       # Number of floating instruction queue writes
system.switch_cpus_1.iq.fp_inst_queue_wakeup_accesses    172769619                       # Number of floating instruction queue wakeup accesses
system.switch_cpus_1.iq.int_alu_accesses     31715453                       # Number of integer alu accesses
system.switch_cpus_1.iq.fp_alu_accesses     189173280                       # Number of floating point alu accesses
system.switch_cpus_1.iew.lsq.thread0.forwLoads      9191526                       # Number of loads that had data forwarded from stores
system.switch_cpus_1.iew.lsq.thread0.invAddrLoads            0                       # Number of loads ignored due to an invalid address
system.switch_cpus_1.iew.lsq.thread0.squashedLoads       415693                       # Number of loads squashed
system.switch_cpus_1.iew.lsq.thread0.ignoredResponses          406                       # Number of memory responses ignored because the instruction is squashed
system.switch_cpus_1.iew.lsq.thread0.memOrderViolation        20925                       # Number of memory ordering violations
system.switch_cpus_1.iew.lsq.thread0.squashedStores       222255                       # Number of stores squashed
system.switch_cpus_1.iew.lsq.thread0.invAddrSwpfs            0                       # Number of software prefetches ignored due to an invalid address
system.switch_cpus_1.iew.lsq.thread0.blockedLoads            0                       # Number of blocked loads due to partial load-store forwarding
system.switch_cpus_1.iew.lsq.thread0.rescheduledLoads            0                       # Number of loads that were rescheduled
system.switch_cpus_1.iew.lsq.thread0.cacheBlocked      5263037                       # Number of times an access to memory failed due to the cache being blocked
system.switch_cpus_1.iew.iewIdleCycles              0                       # Number of cycles IEW is idle
system.switch_cpus_1.iew.iewSquashCycles        25219                       # Number of cycles IEW is squashing
system.switch_cpus_1.iew.iewBlockCycles      14518575                       # Number of cycles IEW is blocking
system.switch_cpus_1.iew.iewUnblockCycles     20509761                       # Number of cycles IEW is unblocking
system.switch_cpus_1.iew.iewDispatchedInsts    201107777                       # Number of instructions dispatched to IQ
system.switch_cpus_1.iew.iewDispSquashedInsts         2036                       # Number of squashed instructions skipped by dispatch
system.switch_cpus_1.iew.iewDispLoadInsts     82549612                       # Number of dispatched load instructions
system.switch_cpus_1.iew.iewDispStoreInsts     38177011                       # Number of dispatched store instructions
system.switch_cpus_1.iew.iewDispNonSpecInsts            0                       # Number of dispatched non-speculative instructions
system.switch_cpus_1.iew.iewIQFullEvents        16781                       # Number of times the IQ has become full, causing a stall
system.switch_cpus_1.iew.iewLSQFullEvents     20430616                       # Number of times the LSQ has become full, causing a stall
system.switch_cpus_1.iew.memOrderViolationEvents        20925                       # Number of memory order violations
system.switch_cpus_1.iew.predictedTakenIncorrect         1397                       # Number of branches that were predicted taken incorrectly
system.switch_cpus_1.iew.predictedNotTakenIncorrect           68                       # Number of branches that were predicted not taken incorrectly
system.switch_cpus_1.iew.branchMispredicts         1465                       # Number of branch mispredicts detected at execute
system.switch_cpus_1.iew.iewExecutedInsts    205716273                       # Number of executed instructions
system.switch_cpus_1.iew.iewExecLoadInsts     87447214                       # Number of load instructions executed
system.switch_cpus_1.iew.iewExecSquashedInsts        64106                       # Number of squashed instructions skipped in execute
system.switch_cpus_1.iew.exec_swp                   0                       # number of swp insts executed
system.switch_cpus_1.iew.exec_nop                  27                       # number of nop insts executed
system.switch_cpus_1.iew.exec_refs          125497714                       # number of memory reference insts executed
system.switch_cpus_1.iew.exec_branches         171903                       # Number of branches executed
system.switch_cpus_1.iew.exec_stores         38050500                       # Number of stores executed
system.switch_cpus_1.iew.exec_rate           1.619094                       # Inst execution rate
system.switch_cpus_1.iew.wb_sent            200670289                       # cumulative count of insts sent to commit
system.switch_cpus_1.iew.wb_count           200613028                       # cumulative count of insts written-back
system.switch_cpus_1.iew.wb_producers       131388391                       # num instructions producing a value
system.switch_cpus_1.iew.wb_consumers       136789352                       # num instructions consuming a value
system.switch_cpus_1.iew.wb_rate             1.578929                       # insts written-back per cycle
system.switch_cpus_1.iew.wb_fanout           0.960516                       # average fanout of values written-back
system.switch_cpus_1.commit.commitSquashedInsts      1063239                       # The number of squashed insts skipped by commit
system.switch_cpus_1.commit.branchMispredicts         1459                       # The number of times a branch was mispredicted
system.switch_cpus_1.commit.committed_per_cycle::samples    126909727                       # Number of insts commited each cycle
system.switch_cpus_1.commit.committed_per_cycle::mean     1.575924                       # Number of insts commited each cycle
system.switch_cpus_1.commit.committed_per_cycle::stdev     2.905294                       # Number of insts commited each cycle
system.switch_cpus_1.commit.committed_per_cycle::underflows            0      0.00%      0.00% # Number of insts commited each cycle
system.switch_cpus_1.commit.committed_per_cycle::0     92446417     72.84%     72.84% # Number of insts commited each cycle
system.switch_cpus_1.commit.committed_per_cycle::1      2866863      2.26%     75.10% # Number of insts commited each cycle
system.switch_cpus_1.commit.committed_per_cycle::2      3119414      2.46%     77.56% # Number of insts commited each cycle
system.switch_cpus_1.commit.committed_per_cycle::3      2405392      1.90%     79.46% # Number of insts commited each cycle
system.switch_cpus_1.commit.committed_per_cycle::4      2969414      2.34%     81.80% # Number of insts commited each cycle
system.switch_cpus_1.commit.committed_per_cycle::5      2493313      1.96%     83.76% # Number of insts commited each cycle
system.switch_cpus_1.commit.committed_per_cycle::6      1824834      1.44%     85.20% # Number of insts commited each cycle
system.switch_cpus_1.commit.committed_per_cycle::7      1887708      1.49%     86.69% # Number of insts commited each cycle
system.switch_cpus_1.commit.committed_per_cycle::8     16896372     13.31%    100.00% # Number of insts commited each cycle
system.switch_cpus_1.commit.committed_per_cycle::overflows            0      0.00%    100.00% # Number of insts commited each cycle
system.switch_cpus_1.commit.committed_per_cycle::min_value            0                       # Number of insts commited each cycle
system.switch_cpus_1.commit.committed_per_cycle::max_value            8                       # Number of insts commited each cycle
system.switch_cpus_1.commit.committed_per_cycle::total    126909727                       # Number of insts commited each cycle
system.switch_cpus_1.commit.committedInsts    200000024                       # Number of instructions committed
system.switch_cpus_1.commit.committedOps    200000024                       # Number of ops (including micro ops) committed
system.switch_cpus_1.commit.swp_count               0                       # Number of s/w prefetches committed
system.switch_cpus_1.commit.refs            120088640                       # Number of memory references committed
system.switch_cpus_1.commit.loads            82133897                       # Number of loads committed
system.switch_cpus_1.commit.membars                 0                       # Number of memory barriers committed
system.switch_cpus_1.commit.branches           167612                       # Number of branches committed
system.switch_cpus_1.commit.fp_insts        172405126                       # Number of committed floating point instructions.
system.switch_cpus_1.commit.int_insts       135398704                       # Number of committed integer instructions.
system.switch_cpus_1.commit.function_calls            0                       # Number of function calls committed.
system.switch_cpus_1.commit.op_class_0::No_OpClass           18      0.00%      0.00% # Class of committed instruction
system.switch_cpus_1.commit.op_class_0::IntAlu     15310537      7.66%      7.66% # Class of committed instruction
system.switch_cpus_1.commit.op_class_0::IntMult          186      0.00%      7.66% # Class of committed instruction
system.switch_cpus_1.commit.op_class_0::IntDiv            0      0.00%      7.66% # Class of committed instruction
system.switch_cpus_1.commit.op_class_0::FloatAdd     36073856     18.04%     25.69% # Class of committed instruction
system.switch_cpus_1.commit.op_class_0::FloatCmp            0      0.00%     25.69% # Class of committed instruction
system.switch_cpus_1.commit.op_class_0::FloatCvt            0      0.00%     25.69% # Class of committed instruction
system.switch_cpus_1.commit.op_class_0::FloatMult     28449010     14.22%     39.92% # Class of committed instruction
system.switch_cpus_1.commit.op_class_0::FloatMultAcc            0      0.00%     39.92% # Class of committed instruction
system.switch_cpus_1.commit.op_class_0::FloatDiv        77777      0.04%     39.96% # Class of committed instruction
system.switch_cpus_1.commit.op_class_0::FloatMisc            0      0.00%     39.96% # Class of committed instruction
system.switch_cpus_1.commit.op_class_0::FloatSqrt            0      0.00%     39.96% # Class of committed instruction
system.switch_cpus_1.commit.op_class_0::SimdAdd            0      0.00%     39.96% # Class of committed instruction
system.switch_cpus_1.commit.op_class_0::SimdAddAcc            0      0.00%     39.96% # Class of committed instruction
system.switch_cpus_1.commit.op_class_0::SimdAlu            0      0.00%     39.96% # Class of committed instruction
system.switch_cpus_1.commit.op_class_0::SimdCmp            0      0.00%     39.96% # Class of committed instruction
system.switch_cpus_1.commit.op_class_0::SimdCvt            0      0.00%     39.96% # Class of committed instruction
system.switch_cpus_1.commit.op_class_0::SimdMisc            0      0.00%     39.96% # Class of committed instruction
system.switch_cpus_1.commit.op_class_0::SimdMult            0      0.00%     39.96% # Class of committed instruction
system.switch_cpus_1.commit.op_class_0::SimdMultAcc            0      0.00%     39.96% # Class of committed instruction
system.switch_cpus_1.commit.op_class_0::SimdShift            0      0.00%     39.96% # Class of committed instruction
system.switch_cpus_1.commit.op_class_0::SimdShiftAcc            0      0.00%     39.96% # Class of committed instruction
system.switch_cpus_1.commit.op_class_0::SimdSqrt            0      0.00%     39.96% # Class of committed instruction
system.switch_cpus_1.commit.op_class_0::SimdFloatAdd            0      0.00%     39.96% # Class of committed instruction
system.switch_cpus_1.commit.op_class_0::SimdFloatAlu            0      0.00%     39.96% # Class of committed instruction
system.switch_cpus_1.commit.op_class_0::SimdFloatCmp            0      0.00%     39.96% # Class of committed instruction
system.switch_cpus_1.commit.op_class_0::SimdFloatCvt            0      0.00%     39.96% # Class of committed instruction
system.switch_cpus_1.commit.op_class_0::SimdFloatDiv            0      0.00%     39.96% # Class of committed instruction
system.switch_cpus_1.commit.op_class_0::SimdFloatMisc            0      0.00%     39.96% # Class of committed instruction
system.switch_cpus_1.commit.op_class_0::SimdFloatMult            0      0.00%     39.96% # Class of committed instruction
system.switch_cpus_1.commit.op_class_0::SimdFloatMultAcc            0      0.00%     39.96% # Class of committed instruction
system.switch_cpus_1.commit.op_class_0::SimdFloatSqrt            0      0.00%     39.96% # Class of committed instruction
system.switch_cpus_1.commit.op_class_0::MemRead      8202704      4.10%     44.06% # Class of committed instruction
system.switch_cpus_1.commit.op_class_0::MemWrite      4081453      2.04%     46.10% # Class of committed instruction
system.switch_cpus_1.commit.op_class_0::FloatMemRead     73931193     36.97%     83.06% # Class of committed instruction
system.switch_cpus_1.commit.op_class_0::FloatMemWrite     33873290     16.94%    100.00% # Class of committed instruction
system.switch_cpus_1.commit.op_class_0::IprAccess            0      0.00%    100.00% # Class of committed instruction
system.switch_cpus_1.commit.op_class_0::InstPrefetch            0      0.00%    100.00% # Class of committed instruction
system.switch_cpus_1.commit.op_class_0::total    200000024                       # Class of committed instruction
system.switch_cpus_1.commit.bw_lim_events     16896372                       # number cycles where commit BW limit reached
system.switch_cpus_1.rob.rob_reads          310998618                       # The number of ROB reads
system.switch_cpus_1.rob.rob_writes         402274120                       # The number of ROB writes
system.switch_cpus_1.timesIdled                     1                       # Number of times that the entire CPU went into an idle state and unscheduled itself
system.switch_cpus_1.idleCycles                   271                       # Total number of cycles that the CPU has spent unscheduled due to idling
system.switch_cpus_1.committedInsts         200000006                       # Number of Instructions Simulated
system.switch_cpus_1.committedOps           200000006                       # Number of Ops (including micro ops) Simulated
system.switch_cpus_1.cpi                     0.635282                       # CPI: Cycles Per Instruction
system.switch_cpus_1.cpi_total               0.635282                       # CPI: Total CPI of All Threads
system.switch_cpus_1.ipc                     1.574104                       # IPC: Instructions Per Cycle
system.switch_cpus_1.ipc_total               1.574104                       # IPC: Total IPC of All Threads
system.switch_cpus_1.int_regfile_reads      145539441                       # number of integer regfile reads
system.switch_cpus_1.int_regfile_writes      23579508                       # number of integer regfile writes
system.switch_cpus_1.fp_regfile_reads       163401004                       # number of floating regfile reads
system.switch_cpus_1.fp_regfile_writes      138857951                       # number of floating regfile writes
system.tol3bus.snoop_filter.tot_requests      7960106                       # Total number of requests made to the snoop filter.
system.tol3bus.snoop_filter.hit_single_requests      3978109                       # Number of requests hitting in the snoop filter with a single holder of the requested data.
system.tol3bus.snoop_filter.hit_multi_requests            0                       # Number of requests hitting in the snoop filter with multiple (>1) holders of the requested data.
system.tol3bus.snoop_filter.tot_snoops         213066                       # Total number of snoops made to the snoop filter.
system.tol3bus.snoop_filter.hit_single_snoops       213066                       # Number of snoops hitting in the snoop filter with a single holder of the requested data.
system.tol3bus.snoop_filter.hit_multi_snoops            0                       # Number of snoops hitting in the snoop filter with multiple (>1) holders of the requested data.
system.tol3bus.pwrStateResidencyTicks::UNDEFINED 34795588901346                       # Cumulative time (in ticks) in various power states
system.tol3bus.trans_dist::ReadResp           2827156                       # Transaction distribution
system.tol3bus.trans_dist::WritebackDirty      2583669                       # Transaction distribution
system.tol3bus.trans_dist::CleanEvict         4561757                       # Transaction distribution
system.tol3bus.trans_dist::ReadExReq          1154841                       # Transaction distribution
system.tol3bus.trans_dist::ReadExResp         1154841                       # Transaction distribution
system.tol3bus.trans_dist::ReadSharedReq      2827156                       # Transaction distribution
system.tol3bus.pkt_count_system.cpu.l2.mem_side::system.l3.cpu_side     11942103                       # Packet count per connected master and slave (bytes)
system.tol3bus.pkt_size_system.cpu.l2.mem_side::system.l3.cpu_side    350209280                       # Cumulative packet size per connected master and slave (bytes)
system.tol3bus.snoops                         3167317                       # Total snoops (count)
system.tol3bus.snoopTraffic                  69993344                       # Total snoop traffic (bytes)
system.tol3bus.snoop_fanout::samples          7149314                       # Request fanout histogram
system.tol3bus.snoop_fanout::mean            0.029802                       # Request fanout histogram
system.tol3bus.snoop_fanout::stdev           0.170042                       # Request fanout histogram
system.tol3bus.snoop_fanout::underflows             0      0.00%      0.00% # Request fanout histogram
system.tol3bus.snoop_fanout::0                6936248     97.02%     97.02% # Request fanout histogram
system.tol3bus.snoop_fanout::1                 213066      2.98%    100.00% # Request fanout histogram
system.tol3bus.snoop_fanout::overflows              0      0.00%    100.00% # Request fanout histogram
system.tol3bus.snoop_fanout::min_value              0                       # Request fanout histogram
system.tol3bus.snoop_fanout::max_value              1                       # Request fanout histogram
system.tol3bus.snoop_fanout::total            7149314                       # Request fanout histogram
system.tol3bus.reqLayer0.occupancy         3146892957                       # Layer occupancy (ticks)
system.tol3bus.reqLayer0.utilization              0.2                       # Layer utilization (%)
system.tol3bus.respLayer0.occupancy        2652010002                       # Layer occupancy (ticks)
system.tol3bus.respLayer0.utilization             0.2                       # Layer utilization (%)

---------- End Simulation Statistics   ----------
