
---------- Begin Simulation Statistics ----------
sim_seconds                                  2.941452                       # Number of seconds simulated
sim_ticks                                2941451654616                       # Number of ticks simulated
final_tick                               76211605455318                       # Number of ticks from beginning of simulation (restored from checkpoints and never reset)
sim_freq                                 1000000000000                       # Frequency of simulated ticks
host_inst_rate                                 139490                       # Simulator instruction rate (inst/s)
host_op_rate                                   139490                       # Simulator op (including micro ops) rate (op/s)
host_tick_rate                              205151051                       # Simulator tick rate (ticks/s)
host_mem_usage                                2404844                       # Number of bytes of host memory used
host_seconds                                 14337.98                       # Real time elapsed on the host
sim_insts                                  2000000009                       # Number of instructions simulated
sim_ops                                    2000000009                       # Number of ops (including micro ops) simulated
system.voltage_domain.voltage                       1                       # Voltage in Volts
system.clk_domain.clock                          1000                       # Clock period in ticks
system.mem_ctrls0.pwrStateResidencyTicks::UNDEFINED 76211605455318                       # Cumulative time (in ticks) in various power states
system.mem_ctrls0.bytes_read::cpu.inst            128                       # Number of bytes read from this memory
system.mem_ctrls0.bytes_read::cpu.data            192                       # Number of bytes read from this memory
system.mem_ctrls0.bytes_read::switch_cpus.inst        43904                       # Number of bytes read from this memory
system.mem_ctrls0.bytes_read::switch_cpus.data    246248768                       # Number of bytes read from this memory
system.mem_ctrls0.bytes_read::switch_cpus_1.inst        27072                       # Number of bytes read from this memory
system.mem_ctrls0.bytes_read::switch_cpus_1.data    250713600                       # Number of bytes read from this memory
system.mem_ctrls0.bytes_read::total         497033664                       # Number of bytes read from this memory
system.mem_ctrls0.bytes_inst_read::cpu.inst          128                       # Number of instructions bytes read from this memory
system.mem_ctrls0.bytes_inst_read::switch_cpus.inst        43904                       # Number of instructions bytes read from this memory
system.mem_ctrls0.bytes_inst_read::switch_cpus_1.inst        27072                       # Number of instructions bytes read from this memory
system.mem_ctrls0.bytes_inst_read::total        71104                       # Number of instructions bytes read from this memory
system.mem_ctrls0.bytes_written::writebacks    153001472                       # Number of bytes written to this memory
system.mem_ctrls0.bytes_written::total      153001472                       # Number of bytes written to this memory
system.mem_ctrls0.num_reads::cpu.inst               2                       # Number of read requests responded to by this memory
system.mem_ctrls0.num_reads::cpu.data               3                       # Number of read requests responded to by this memory
system.mem_ctrls0.num_reads::switch_cpus.inst          686                       # Number of read requests responded to by this memory
system.mem_ctrls0.num_reads::switch_cpus.data      3847637                       # Number of read requests responded to by this memory
system.mem_ctrls0.num_reads::switch_cpus_1.inst          423                       # Number of read requests responded to by this memory
system.mem_ctrls0.num_reads::switch_cpus_1.data      3917400                       # Number of read requests responded to by this memory
system.mem_ctrls0.num_reads::total            7766151                       # Number of read requests responded to by this memory
system.mem_ctrls0.num_writes::writebacks      2390648                       # Number of write requests responded to by this memory
system.mem_ctrls0.num_writes::total           2390648                       # Number of write requests responded to by this memory
system.mem_ctrls0.bw_read::cpu.inst                44                       # Total read bandwidth from this memory (bytes/s)
system.mem_ctrls0.bw_read::cpu.data                65                       # Total read bandwidth from this memory (bytes/s)
system.mem_ctrls0.bw_read::switch_cpus.inst        14926                       # Total read bandwidth from this memory (bytes/s)
system.mem_ctrls0.bw_read::switch_cpus.data     83716748                       # Total read bandwidth from this memory (bytes/s)
system.mem_ctrls0.bw_read::switch_cpus_1.inst         9204                       # Total read bandwidth from this memory (bytes/s)
system.mem_ctrls0.bw_read::switch_cpus_1.data     85234649                       # Total read bandwidth from this memory (bytes/s)
system.mem_ctrls0.bw_read::total            168975636                       # Total read bandwidth from this memory (bytes/s)
system.mem_ctrls0.bw_inst_read::cpu.inst           44                       # Instruction read bandwidth from this memory (bytes/s)
system.mem_ctrls0.bw_inst_read::switch_cpus.inst        14926                       # Instruction read bandwidth from this memory (bytes/s)
system.mem_ctrls0.bw_inst_read::switch_cpus_1.inst         9204                       # Instruction read bandwidth from this memory (bytes/s)
system.mem_ctrls0.bw_inst_read::total           24173                       # Instruction read bandwidth from this memory (bytes/s)
system.mem_ctrls0.bw_write::writebacks       52015634                       # Write bandwidth from this memory (bytes/s)
system.mem_ctrls0.bw_write::total            52015634                       # Write bandwidth from this memory (bytes/s)
system.mem_ctrls0.bw_total::writebacks       52015634                       # Total bandwidth to/from this memory (bytes/s)
system.mem_ctrls0.bw_total::cpu.inst               44                       # Total bandwidth to/from this memory (bytes/s)
system.mem_ctrls0.bw_total::cpu.data               65                       # Total bandwidth to/from this memory (bytes/s)
system.mem_ctrls0.bw_total::switch_cpus.inst        14926                       # Total bandwidth to/from this memory (bytes/s)
system.mem_ctrls0.bw_total::switch_cpus.data     83716748                       # Total bandwidth to/from this memory (bytes/s)
system.mem_ctrls0.bw_total::switch_cpus_1.inst         9204                       # Total bandwidth to/from this memory (bytes/s)
system.mem_ctrls0.bw_total::switch_cpus_1.data     85234649                       # Total bandwidth to/from this memory (bytes/s)
system.mem_ctrls0.bw_total::total           220991270                       # Total bandwidth to/from this memory (bytes/s)
system.mem_ctrls0.readReqs                    7766151                       # Number of read requests accepted
system.mem_ctrls0.writeReqs                   2390648                       # Number of write requests accepted
system.mem_ctrls0.readBursts                  7766151                       # Number of DRAM read bursts, including those serviced by the write queue
system.mem_ctrls0.writeBursts                 2390648                       # Number of DRAM write bursts, including those merged in the write queue
system.mem_ctrls0.bytesReadDRAM             496752000                       # Total number of bytes read from DRAM
system.mem_ctrls0.bytesReadWrQ                 281664                       # Total number of bytes read from write queue
system.mem_ctrls0.bytesWritten              153000512                       # Total number of bytes written to DRAM
system.mem_ctrls0.bytesReadSys              497033664                       # Total read bytes from the system interface side
system.mem_ctrls0.bytesWrittenSys           153001472                       # Total written bytes from the system interface side
system.mem_ctrls0.servicedByWrQ                  4401                       # Number of DRAM read bursts serviced by the write queue
system.mem_ctrls0.mergedWrBursts                    0                       # Number of DRAM write bursts merged with an existing one
system.mem_ctrls0.neitherReadNorWriteReqs            0                       # Number of requests that are neither read nor write
system.mem_ctrls0.perBankRdBursts::0           508856                       # Per bank write bursts
system.mem_ctrls0.perBankRdBursts::1           508753                       # Per bank write bursts
system.mem_ctrls0.perBankRdBursts::2           499424                       # Per bank write bursts
system.mem_ctrls0.perBankRdBursts::3           497610                       # Per bank write bursts
system.mem_ctrls0.perBankRdBursts::4           488233                       # Per bank write bursts
system.mem_ctrls0.perBankRdBursts::5           477064                       # Per bank write bursts
system.mem_ctrls0.perBankRdBursts::6           473442                       # Per bank write bursts
system.mem_ctrls0.perBankRdBursts::7           475942                       # Per bank write bursts
system.mem_ctrls0.perBankRdBursts::8           485901                       # Per bank write bursts
system.mem_ctrls0.perBankRdBursts::9           486150                       # Per bank write bursts
system.mem_ctrls0.perBankRdBursts::10          475565                       # Per bank write bursts
system.mem_ctrls0.perBankRdBursts::11          468546                       # Per bank write bursts
system.mem_ctrls0.perBankRdBursts::12          471081                       # Per bank write bursts
system.mem_ctrls0.perBankRdBursts::13          476404                       # Per bank write bursts
system.mem_ctrls0.perBankRdBursts::14          481128                       # Per bank write bursts
system.mem_ctrls0.perBankRdBursts::15          487651                       # Per bank write bursts
system.mem_ctrls0.perBankWrBursts::0           165597                       # Per bank write bursts
system.mem_ctrls0.perBankWrBursts::1           162375                       # Per bank write bursts
system.mem_ctrls0.perBankWrBursts::2           157331                       # Per bank write bursts
system.mem_ctrls0.perBankWrBursts::3           158686                       # Per bank write bursts
system.mem_ctrls0.perBankWrBursts::4           154036                       # Per bank write bursts
system.mem_ctrls0.perBankWrBursts::5           146639                       # Per bank write bursts
system.mem_ctrls0.perBankWrBursts::6           143706                       # Per bank write bursts
system.mem_ctrls0.perBankWrBursts::7           142195                       # Per bank write bursts
system.mem_ctrls0.perBankWrBursts::8           143451                       # Per bank write bursts
system.mem_ctrls0.perBankWrBursts::9           144171                       # Per bank write bursts
system.mem_ctrls0.perBankWrBursts::10          142928                       # Per bank write bursts
system.mem_ctrls0.perBankWrBursts::11          139796                       # Per bank write bursts
system.mem_ctrls0.perBankWrBursts::12          141904                       # Per bank write bursts
system.mem_ctrls0.perBankWrBursts::13          145379                       # Per bank write bursts
system.mem_ctrls0.perBankWrBursts::14          148609                       # Per bank write bursts
system.mem_ctrls0.perBankWrBursts::15          153830                       # Per bank write bursts
system.mem_ctrls0.numRdRetry                        0                       # Number of times read queue was full causing retry
system.mem_ctrls0.numWrRetry                        0                       # Number of times write queue was full causing retry
system.mem_ctrls0.totGap                 2941451005266                       # Total gap between requests
system.mem_ctrls0.readPktSize::0                    0                       # Read request sizes (log2)
system.mem_ctrls0.readPktSize::1                    0                       # Read request sizes (log2)
system.mem_ctrls0.readPktSize::2                    0                       # Read request sizes (log2)
system.mem_ctrls0.readPktSize::3                    0                       # Read request sizes (log2)
system.mem_ctrls0.readPktSize::4                    0                       # Read request sizes (log2)
system.mem_ctrls0.readPktSize::5                    0                       # Read request sizes (log2)
system.mem_ctrls0.readPktSize::6              7766151                       # Read request sizes (log2)
system.mem_ctrls0.writePktSize::0                   0                       # Write request sizes (log2)
system.mem_ctrls0.writePktSize::1                   0                       # Write request sizes (log2)
system.mem_ctrls0.writePktSize::2                   0                       # Write request sizes (log2)
system.mem_ctrls0.writePktSize::3                   0                       # Write request sizes (log2)
system.mem_ctrls0.writePktSize::4                   0                       # Write request sizes (log2)
system.mem_ctrls0.writePktSize::5                   0                       # Write request sizes (log2)
system.mem_ctrls0.writePktSize::6             2390648                       # Write request sizes (log2)
system.mem_ctrls0.rdQLenPdf::0                6656155                       # What read queue length does an incoming req see
system.mem_ctrls0.rdQLenPdf::1                 910126                       # What read queue length does an incoming req see
system.mem_ctrls0.rdQLenPdf::2                 183169                       # What read queue length does an incoming req see
system.mem_ctrls0.rdQLenPdf::3                  12300                       # What read queue length does an incoming req see
system.mem_ctrls0.rdQLenPdf::4                      0                       # What read queue length does an incoming req see
system.mem_ctrls0.rdQLenPdf::5                      0                       # What read queue length does an incoming req see
system.mem_ctrls0.rdQLenPdf::6                      0                       # What read queue length does an incoming req see
system.mem_ctrls0.rdQLenPdf::7                      0                       # What read queue length does an incoming req see
system.mem_ctrls0.rdQLenPdf::8                      0                       # What read queue length does an incoming req see
system.mem_ctrls0.rdQLenPdf::9                      0                       # What read queue length does an incoming req see
system.mem_ctrls0.rdQLenPdf::10                     0                       # What read queue length does an incoming req see
system.mem_ctrls0.rdQLenPdf::11                     0                       # What read queue length does an incoming req see
system.mem_ctrls0.rdQLenPdf::12                     0                       # What read queue length does an incoming req see
system.mem_ctrls0.rdQLenPdf::13                     0                       # What read queue length does an incoming req see
system.mem_ctrls0.rdQLenPdf::14                     0                       # What read queue length does an incoming req see
system.mem_ctrls0.rdQLenPdf::15                     0                       # What read queue length does an incoming req see
system.mem_ctrls0.rdQLenPdf::16                     0                       # What read queue length does an incoming req see
system.mem_ctrls0.rdQLenPdf::17                     0                       # What read queue length does an incoming req see
system.mem_ctrls0.rdQLenPdf::18                     0                       # What read queue length does an incoming req see
system.mem_ctrls0.rdQLenPdf::19                     0                       # What read queue length does an incoming req see
system.mem_ctrls0.rdQLenPdf::20                     0                       # What read queue length does an incoming req see
system.mem_ctrls0.rdQLenPdf::21                     0                       # What read queue length does an incoming req see
system.mem_ctrls0.rdQLenPdf::22                     0                       # What read queue length does an incoming req see
system.mem_ctrls0.rdQLenPdf::23                     0                       # What read queue length does an incoming req see
system.mem_ctrls0.rdQLenPdf::24                     0                       # What read queue length does an incoming req see
system.mem_ctrls0.rdQLenPdf::25                     0                       # What read queue length does an incoming req see
system.mem_ctrls0.rdQLenPdf::26                     0                       # What read queue length does an incoming req see
system.mem_ctrls0.rdQLenPdf::27                     0                       # What read queue length does an incoming req see
system.mem_ctrls0.rdQLenPdf::28                     0                       # What read queue length does an incoming req see
system.mem_ctrls0.rdQLenPdf::29                     0                       # What read queue length does an incoming req see
system.mem_ctrls0.rdQLenPdf::30                     0                       # What read queue length does an incoming req see
system.mem_ctrls0.rdQLenPdf::31                     0                       # What read queue length does an incoming req see
system.mem_ctrls0.wrQLenPdf::0                      2                       # What write queue length does an incoming req see
system.mem_ctrls0.wrQLenPdf::1                      2                       # What write queue length does an incoming req see
system.mem_ctrls0.wrQLenPdf::2                      2                       # What write queue length does an incoming req see
system.mem_ctrls0.wrQLenPdf::3                      2                       # What write queue length does an incoming req see
system.mem_ctrls0.wrQLenPdf::4                      2                       # What write queue length does an incoming req see
system.mem_ctrls0.wrQLenPdf::5                      2                       # What write queue length does an incoming req see
system.mem_ctrls0.wrQLenPdf::6                      2                       # What write queue length does an incoming req see
system.mem_ctrls0.wrQLenPdf::7                      2                       # What write queue length does an incoming req see
system.mem_ctrls0.wrQLenPdf::8                      2                       # What write queue length does an incoming req see
system.mem_ctrls0.wrQLenPdf::9                      2                       # What write queue length does an incoming req see
system.mem_ctrls0.wrQLenPdf::10                     2                       # What write queue length does an incoming req see
system.mem_ctrls0.wrQLenPdf::11                     2                       # What write queue length does an incoming req see
system.mem_ctrls0.wrQLenPdf::12                     2                       # What write queue length does an incoming req see
system.mem_ctrls0.wrQLenPdf::13                     2                       # What write queue length does an incoming req see
system.mem_ctrls0.wrQLenPdf::14                     2                       # What write queue length does an incoming req see
system.mem_ctrls0.wrQLenPdf::15                 95867                       # What write queue length does an incoming req see
system.mem_ctrls0.wrQLenPdf::16                 99789                       # What write queue length does an incoming req see
system.mem_ctrls0.wrQLenPdf::17                131907                       # What write queue length does an incoming req see
system.mem_ctrls0.wrQLenPdf::18                136539                       # What write queue length does an incoming req see
system.mem_ctrls0.wrQLenPdf::19                137213                       # What write queue length does an incoming req see
system.mem_ctrls0.wrQLenPdf::20                137425                       # What write queue length does an incoming req see
system.mem_ctrls0.wrQLenPdf::21                137607                       # What write queue length does an incoming req see
system.mem_ctrls0.wrQLenPdf::22                138226                       # What write queue length does an incoming req see
system.mem_ctrls0.wrQLenPdf::23                137890                       # What write queue length does an incoming req see
system.mem_ctrls0.wrQLenPdf::24                137510                       # What write queue length does an incoming req see
system.mem_ctrls0.wrQLenPdf::25                137424                       # What write queue length does an incoming req see
system.mem_ctrls0.wrQLenPdf::26                137440                       # What write queue length does an incoming req see
system.mem_ctrls0.wrQLenPdf::27                137514                       # What write queue length does an incoming req see
system.mem_ctrls0.wrQLenPdf::28                137456                       # What write queue length does an incoming req see
system.mem_ctrls0.wrQLenPdf::29                137727                       # What write queue length does an incoming req see
system.mem_ctrls0.wrQLenPdf::30                138986                       # What write queue length does an incoming req see
system.mem_ctrls0.wrQLenPdf::31                136766                       # What write queue length does an incoming req see
system.mem_ctrls0.wrQLenPdf::32                136666                       # What write queue length does an incoming req see
system.mem_ctrls0.wrQLenPdf::33                   619                       # What write queue length does an incoming req see
system.mem_ctrls0.wrQLenPdf::34                    39                       # What write queue length does an incoming req see
system.mem_ctrls0.wrQLenPdf::35                     8                       # What write queue length does an incoming req see
system.mem_ctrls0.wrQLenPdf::36                     0                       # What write queue length does an incoming req see
system.mem_ctrls0.wrQLenPdf::37                     0                       # What write queue length does an incoming req see
system.mem_ctrls0.wrQLenPdf::38                     0                       # What write queue length does an incoming req see
system.mem_ctrls0.wrQLenPdf::39                     0                       # What write queue length does an incoming req see
system.mem_ctrls0.wrQLenPdf::40                     0                       # What write queue length does an incoming req see
system.mem_ctrls0.wrQLenPdf::41                     0                       # What write queue length does an incoming req see
system.mem_ctrls0.wrQLenPdf::42                     0                       # What write queue length does an incoming req see
system.mem_ctrls0.wrQLenPdf::43                     0                       # What write queue length does an incoming req see
system.mem_ctrls0.wrQLenPdf::44                     0                       # What write queue length does an incoming req see
system.mem_ctrls0.wrQLenPdf::45                     0                       # What write queue length does an incoming req see
system.mem_ctrls0.wrQLenPdf::46                     0                       # What write queue length does an incoming req see
system.mem_ctrls0.wrQLenPdf::47                     0                       # What write queue length does an incoming req see
system.mem_ctrls0.wrQLenPdf::48                     0                       # What write queue length does an incoming req see
system.mem_ctrls0.wrQLenPdf::49                     0                       # What write queue length does an incoming req see
system.mem_ctrls0.wrQLenPdf::50                     0                       # What write queue length does an incoming req see
system.mem_ctrls0.wrQLenPdf::51                     0                       # What write queue length does an incoming req see
system.mem_ctrls0.wrQLenPdf::52                     0                       # What write queue length does an incoming req see
system.mem_ctrls0.wrQLenPdf::53                     0                       # What write queue length does an incoming req see
system.mem_ctrls0.wrQLenPdf::54                     0                       # What write queue length does an incoming req see
system.mem_ctrls0.wrQLenPdf::55                     0                       # What write queue length does an incoming req see
system.mem_ctrls0.wrQLenPdf::56                     0                       # What write queue length does an incoming req see
system.mem_ctrls0.wrQLenPdf::57                     0                       # What write queue length does an incoming req see
system.mem_ctrls0.wrQLenPdf::58                     0                       # What write queue length does an incoming req see
system.mem_ctrls0.wrQLenPdf::59                     0                       # What write queue length does an incoming req see
system.mem_ctrls0.wrQLenPdf::60                     0                       # What write queue length does an incoming req see
system.mem_ctrls0.wrQLenPdf::61                     0                       # What write queue length does an incoming req see
system.mem_ctrls0.wrQLenPdf::62                     0                       # What write queue length does an incoming req see
system.mem_ctrls0.wrQLenPdf::63                     0                       # What write queue length does an incoming req see
system.mem_ctrls0.bytesPerActivate::samples      3829083                       # Bytes accessed per row activation
system.mem_ctrls0.bytesPerActivate::mean   169.688419                       # Bytes accessed per row activation
system.mem_ctrls0.bytesPerActivate::gmean   121.108928                       # Bytes accessed per row activation
system.mem_ctrls0.bytesPerActivate::stdev   177.936595                       # Bytes accessed per row activation
system.mem_ctrls0.bytesPerActivate::0-127      1782526     46.55%     46.55% # Bytes accessed per row activation
system.mem_ctrls0.bytesPerActivate::128-255      1258656     32.87%     79.42% # Bytes accessed per row activation
system.mem_ctrls0.bytesPerActivate::256-383       284060      7.42%     86.84% # Bytes accessed per row activation
system.mem_ctrls0.bytesPerActivate::384-511       203445      5.31%     92.15% # Bytes accessed per row activation
system.mem_ctrls0.bytesPerActivate::512-639       185413      4.84%     97.00% # Bytes accessed per row activation
system.mem_ctrls0.bytesPerActivate::640-767        30947      0.81%     97.81% # Bytes accessed per row activation
system.mem_ctrls0.bytesPerActivate::768-895        17651      0.46%     98.27% # Bytes accessed per row activation
system.mem_ctrls0.bytesPerActivate::896-1023        15139      0.40%     98.66% # Bytes accessed per row activation
system.mem_ctrls0.bytesPerActivate::1024-1151        51246      1.34%    100.00% # Bytes accessed per row activation
system.mem_ctrls0.bytesPerActivate::total      3829083                       # Bytes accessed per row activation
system.mem_ctrls0.rdPerTurnAround::samples       136422                       # Reads before turning the bus around for writes
system.mem_ctrls0.rdPerTurnAround::mean     56.895134                       # Reads before turning the bus around for writes
system.mem_ctrls0.rdPerTurnAround::gmean    49.204666                       # Reads before turning the bus around for writes
system.mem_ctrls0.rdPerTurnAround::stdev    92.699273                       # Reads before turning the bus around for writes
system.mem_ctrls0.rdPerTurnAround::0-1023       136414     99.99%     99.99% # Reads before turning the bus around for writes
system.mem_ctrls0.rdPerTurnAround::1024-2047            7      0.01%    100.00% # Reads before turning the bus around for writes
system.mem_ctrls0.rdPerTurnAround::30720-31743            1      0.00%    100.00% # Reads before turning the bus around for writes
system.mem_ctrls0.rdPerTurnAround::total       136422                       # Reads before turning the bus around for writes
system.mem_ctrls0.wrPerTurnAround::samples       136422                       # Writes before turning the bus around for reads
system.mem_ctrls0.wrPerTurnAround::mean     17.523808                       # Writes before turning the bus around for reads
system.mem_ctrls0.wrPerTurnAround::gmean    17.495721                       # Writes before turning the bus around for reads
system.mem_ctrls0.wrPerTurnAround::stdev     0.980536                       # Writes before turning the bus around for reads
system.mem_ctrls0.wrPerTurnAround::16           36340     26.64%     26.64% # Writes before turning the bus around for reads
system.mem_ctrls0.wrPerTurnAround::17            3213      2.36%     28.99% # Writes before turning the bus around for reads
system.mem_ctrls0.wrPerTurnAround::18           87108     63.85%     92.84% # Writes before turning the bus around for reads
system.mem_ctrls0.wrPerTurnAround::19            8707      6.38%     99.23% # Writes before turning the bus around for reads
system.mem_ctrls0.wrPerTurnAround::20             951      0.70%     99.92% # Writes before turning the bus around for reads
system.mem_ctrls0.wrPerTurnAround::21              92      0.07%     99.99% # Writes before turning the bus around for reads
system.mem_ctrls0.wrPerTurnAround::22              10      0.01%    100.00% # Writes before turning the bus around for reads
system.mem_ctrls0.wrPerTurnAround::23               1      0.00%    100.00% # Writes before turning the bus around for reads
system.mem_ctrls0.wrPerTurnAround::total       136422                       # Writes before turning the bus around for reads
system.mem_ctrls0.totQLat                163816630542                       # Total ticks spent queuing
system.mem_ctrls0.totMemAccLat           309349443042                       # Total ticks spent from burst creation until serviced by the DRAM
system.mem_ctrls0.totBusLat               38808750000                       # Total ticks spent in databus transfers
system.mem_ctrls0.avgQLat                    21105.63                       # Average queueing delay per DRAM burst
system.mem_ctrls0.avgBusLat                   5000.00                       # Average bus latency per DRAM burst
system.mem_ctrls0.avgMemAccLat               39855.63                       # Average memory access latency per DRAM burst
system.mem_ctrls0.avgRdBW                      168.88                       # Average DRAM read bandwidth in MiByte/s
system.mem_ctrls0.avgWrBW                       52.02                       # Average achieved write bandwidth in MiByte/s
system.mem_ctrls0.avgRdBWSys                   168.98                       # Average system read bandwidth in MiByte/s
system.mem_ctrls0.avgWrBWSys                    52.02                       # Average system write bandwidth in MiByte/s
system.mem_ctrls0.peakBW                     12800.00                       # Theoretical peak bandwidth in MiByte/s
system.mem_ctrls0.busUtil                        1.73                       # Data bus utilization in percentage
system.mem_ctrls0.busUtilRead                    1.32                       # Data bus utilization in percentage for reads
system.mem_ctrls0.busUtilWrite                   0.41                       # Data bus utilization in percentage for writes
system.mem_ctrls0.avgRdQLen                      1.07                       # Average read queue length when enqueuing
system.mem_ctrls0.avgWrQLen                     24.47                       # Average write queue length when enqueuing
system.mem_ctrls0.readRowHits                 4977184                       # Number of row buffer hits during reads
system.mem_ctrls0.writeRowHits                1346106                       # Number of row buffer hits during writes
system.mem_ctrls0.readRowHitRate                64.12                       # Row buffer hit rate for reads
system.mem_ctrls0.writeRowHitRate               56.31                       # Row buffer hit rate for writes
system.mem_ctrls0.avgGap                    289604.14                       # Average gap between requests
system.mem_ctrls0.pageHitRate                   62.28                       # Row buffer hit rate, read and write combined
system.mem_ctrls0_0.actEnergy             13876475760                       # Energy for activate commands per rank (pJ)
system.mem_ctrls0_0.preEnergy              7375506600                       # Energy for precharge commands per rank (pJ)
system.mem_ctrls0_0.readEnergy            28055373360                       # Energy for read commands per rank (pJ)
system.mem_ctrls0_0.writeEnergy            6423549300                       # Energy for write commands per rank (pJ)
system.mem_ctrls0_0.refreshEnergy        229471541520.000061                       # Energy for refresh commands per rank (pJ)
system.mem_ctrls0_0.actBackEnergy        141306580740                       # Energy for active background per rank (pJ)
system.mem_ctrls0_0.preBackEnergy          7303142880                       # Energy for precharge background per rank (pJ)
system.mem_ctrls0_0.actPowerDownEnergy   937276936140                       # Energy for active power-down per rank (pJ)
system.mem_ctrls0_0.prePowerDownEnergy   150521106240                       # Energy for precharge power-down per rank (pJ)
system.mem_ctrls0_0.selfRefreshEnergy     49593961665                       # Energy for self refresh per rank (pJ)
system.mem_ctrls0_0.totalEnergy          1571248824645                       # Total energy per rank (pJ)
system.mem_ctrls0_0.averagePower           534.174617                       # Core power per rank (mW)
system.mem_ctrls0_0.totalIdleTime        2612469128302                       # Total Idle time Per DRAM Rank
system.mem_ctrls0_0.memoryStateTime::IDLE   6994740921                       # Time in different power states
system.mem_ctrls0_0.memoryStateTime::REF  97181974000                       # Time in different power states
system.mem_ctrls0_0.memoryStateTime::SREF 165037030968                       # Time in different power states
system.mem_ctrls0_0.memoryStateTime::PRE_PDN 391980527121                       # Time in different power states
system.mem_ctrls0_0.memoryStateTime::ACT 224805811393                       # Time in different power states
system.mem_ctrls0_0.memoryStateTime::ACT_PDN 2055451570213                       # Time in different power states
system.mem_ctrls0_1.actEnergy             13463248260                       # Energy for activate commands per rank (pJ)
system.mem_ctrls0_1.preEnergy              7155863385                       # Energy for precharge commands per rank (pJ)
system.mem_ctrls0_1.readEnergy            27363521640                       # Energy for read commands per rank (pJ)
system.mem_ctrls0_1.writeEnergy            6055554960                       # Energy for write commands per rank (pJ)
system.mem_ctrls0_1.refreshEnergy        228693407280.000061                       # Energy for refresh commands per rank (pJ)
system.mem_ctrls0_1.actBackEnergy        141104620620                       # Energy for active background per rank (pJ)
system.mem_ctrls0_1.preBackEnergy          7469777760                       # Energy for precharge background per rank (pJ)
system.mem_ctrls0_1.actPowerDownEnergy   920851149810                       # Energy for active power-down per rank (pJ)
system.mem_ctrls0_1.prePowerDownEnergy   155571376800                       # Energy for precharge power-down per rank (pJ)
system.mem_ctrls0_1.selfRefreshEnergy     56076461925                       # Energy for self refresh per rank (pJ)
system.mem_ctrls0_1.totalEnergy          1563851235750                       # Total energy per rank (pJ)
system.mem_ctrls0_1.averagePower           531.659673                       # Core power per rank (mW)
system.mem_ctrls0_1.totalIdleTime        2612458213430                       # Total Idle time Per DRAM Rank
system.mem_ctrls0_1.memoryStateTime::IDLE   7566153102                       # Time in different power states
system.mem_ctrls0_1.memoryStateTime::REF  96864292000                       # Time in different power states
system.mem_ctrls0_1.memoryStateTime::SREF 187912145057                       # Time in different power states
system.mem_ctrls0_1.memoryStateTime::PRE_PDN 405126880741                       # Time in different power states
system.mem_ctrls0_1.memoryStateTime::ACT 224562548640                       # Time in different power states
system.mem_ctrls0_1.memoryStateTime::ACT_PDN 2019419635076                       # Time in different power states
system.mem_ctrls1.pwrStateResidencyTicks::UNDEFINED 76211605455318                       # Cumulative time (in ticks) in various power states
system.mem_ctrls1.bytes_read::cpu.inst            128                       # Number of bytes read from this memory
system.mem_ctrls1.bytes_read::cpu.data            192                       # Number of bytes read from this memory
system.mem_ctrls1.bytes_read::switch_cpus.inst        43840                       # Number of bytes read from this memory
system.mem_ctrls1.bytes_read::switch_cpus.data    246268416                       # Number of bytes read from this memory
system.mem_ctrls1.bytes_read::switch_cpus_1.inst        26752                       # Number of bytes read from this memory
system.mem_ctrls1.bytes_read::switch_cpus_1.data    250751424                       # Number of bytes read from this memory
system.mem_ctrls1.bytes_read::total         497090752                       # Number of bytes read from this memory
system.mem_ctrls1.bytes_inst_read::cpu.inst          128                       # Number of instructions bytes read from this memory
system.mem_ctrls1.bytes_inst_read::switch_cpus.inst        43840                       # Number of instructions bytes read from this memory
system.mem_ctrls1.bytes_inst_read::switch_cpus_1.inst        26752                       # Number of instructions bytes read from this memory
system.mem_ctrls1.bytes_inst_read::total        70720                       # Number of instructions bytes read from this memory
system.mem_ctrls1.bytes_written::writebacks    153003968                       # Number of bytes written to this memory
system.mem_ctrls1.bytes_written::total      153003968                       # Number of bytes written to this memory
system.mem_ctrls1.num_reads::cpu.inst               2                       # Number of read requests responded to by this memory
system.mem_ctrls1.num_reads::cpu.data               3                       # Number of read requests responded to by this memory
system.mem_ctrls1.num_reads::switch_cpus.inst          685                       # Number of read requests responded to by this memory
system.mem_ctrls1.num_reads::switch_cpus.data      3847944                       # Number of read requests responded to by this memory
system.mem_ctrls1.num_reads::switch_cpus_1.inst          418                       # Number of read requests responded to by this memory
system.mem_ctrls1.num_reads::switch_cpus_1.data      3917991                       # Number of read requests responded to by this memory
system.mem_ctrls1.num_reads::total            7767043                       # Number of read requests responded to by this memory
system.mem_ctrls1.num_writes::writebacks      2390687                       # Number of write requests responded to by this memory
system.mem_ctrls1.num_writes::total           2390687                       # Number of write requests responded to by this memory
system.mem_ctrls1.bw_read::cpu.inst                44                       # Total read bandwidth from this memory (bytes/s)
system.mem_ctrls1.bw_read::cpu.data                65                       # Total read bandwidth from this memory (bytes/s)
system.mem_ctrls1.bw_read::switch_cpus.inst        14904                       # Total read bandwidth from this memory (bytes/s)
system.mem_ctrls1.bw_read::switch_cpus.data     83723428                       # Total read bandwidth from this memory (bytes/s)
system.mem_ctrls1.bw_read::switch_cpus_1.inst         9095                       # Total read bandwidth from this memory (bytes/s)
system.mem_ctrls1.bw_read::switch_cpus_1.data     85247508                       # Total read bandwidth from this memory (bytes/s)
system.mem_ctrls1.bw_read::total            168995044                       # Total read bandwidth from this memory (bytes/s)
system.mem_ctrls1.bw_inst_read::cpu.inst           44                       # Instruction read bandwidth from this memory (bytes/s)
system.mem_ctrls1.bw_inst_read::switch_cpus.inst        14904                       # Instruction read bandwidth from this memory (bytes/s)
system.mem_ctrls1.bw_inst_read::switch_cpus_1.inst         9095                       # Instruction read bandwidth from this memory (bytes/s)
system.mem_ctrls1.bw_inst_read::total           24043                       # Instruction read bandwidth from this memory (bytes/s)
system.mem_ctrls1.bw_write::writebacks       52016482                       # Write bandwidth from this memory (bytes/s)
system.mem_ctrls1.bw_write::total            52016482                       # Write bandwidth from this memory (bytes/s)
system.mem_ctrls1.bw_total::writebacks       52016482                       # Total bandwidth to/from this memory (bytes/s)
system.mem_ctrls1.bw_total::cpu.inst               44                       # Total bandwidth to/from this memory (bytes/s)
system.mem_ctrls1.bw_total::cpu.data               65                       # Total bandwidth to/from this memory (bytes/s)
system.mem_ctrls1.bw_total::switch_cpus.inst        14904                       # Total bandwidth to/from this memory (bytes/s)
system.mem_ctrls1.bw_total::switch_cpus.data     83723428                       # Total bandwidth to/from this memory (bytes/s)
system.mem_ctrls1.bw_total::switch_cpus_1.inst         9095                       # Total bandwidth to/from this memory (bytes/s)
system.mem_ctrls1.bw_total::switch_cpus_1.data     85247508                       # Total bandwidth to/from this memory (bytes/s)
system.mem_ctrls1.bw_total::total           221011526                       # Total bandwidth to/from this memory (bytes/s)
system.mem_ctrls1.readReqs                    7767043                       # Number of read requests accepted
system.mem_ctrls1.writeReqs                   2390687                       # Number of write requests accepted
system.mem_ctrls1.readBursts                  7767043                       # Number of DRAM read bursts, including those serviced by the write queue
system.mem_ctrls1.writeBursts                 2390687                       # Number of DRAM write bursts, including those merged in the write queue
system.mem_ctrls1.bytesReadDRAM             496790784                       # Total number of bytes read from DRAM
system.mem_ctrls1.bytesReadWrQ                 299968                       # Total number of bytes read from write queue
system.mem_ctrls1.bytesWritten              153002816                       # Total number of bytes written to DRAM
system.mem_ctrls1.bytesReadSys              497090752                       # Total read bytes from the system interface side
system.mem_ctrls1.bytesWrittenSys           153003968                       # Total written bytes from the system interface side
system.mem_ctrls1.servicedByWrQ                  4687                       # Number of DRAM read bursts serviced by the write queue
system.mem_ctrls1.mergedWrBursts                    0                       # Number of DRAM write bursts merged with an existing one
system.mem_ctrls1.neitherReadNorWriteReqs            0                       # Number of requests that are neither read nor write
system.mem_ctrls1.perBankRdBursts::0           508158                       # Per bank write bursts
system.mem_ctrls1.perBankRdBursts::1           508103                       # Per bank write bursts
system.mem_ctrls1.perBankRdBursts::2           499974                       # Per bank write bursts
system.mem_ctrls1.perBankRdBursts::3           497511                       # Per bank write bursts
system.mem_ctrls1.perBankRdBursts::4           488062                       # Per bank write bursts
system.mem_ctrls1.perBankRdBursts::5           476464                       # Per bank write bursts
system.mem_ctrls1.perBankRdBursts::6           473852                       # Per bank write bursts
system.mem_ctrls1.perBankRdBursts::7           477037                       # Per bank write bursts
system.mem_ctrls1.perBankRdBursts::8           485565                       # Per bank write bursts
system.mem_ctrls1.perBankRdBursts::9           486337                       # Per bank write bursts
system.mem_ctrls1.perBankRdBursts::10          476152                       # Per bank write bursts
system.mem_ctrls1.perBankRdBursts::11          468872                       # Per bank write bursts
system.mem_ctrls1.perBankRdBursts::12          469608                       # Per bank write bursts
system.mem_ctrls1.perBankRdBursts::13          476774                       # Per bank write bursts
system.mem_ctrls1.perBankRdBursts::14          481629                       # Per bank write bursts
system.mem_ctrls1.perBankRdBursts::15          488258                       # Per bank write bursts
system.mem_ctrls1.perBankWrBursts::0           165642                       # Per bank write bursts
system.mem_ctrls1.perBankWrBursts::1           161932                       # Per bank write bursts
system.mem_ctrls1.perBankWrBursts::2           157698                       # Per bank write bursts
system.mem_ctrls1.perBankWrBursts::3           158522                       # Per bank write bursts
system.mem_ctrls1.perBankWrBursts::4           154051                       # Per bank write bursts
system.mem_ctrls1.perBankWrBursts::5           146606                       # Per bank write bursts
system.mem_ctrls1.perBankWrBursts::6           143547                       # Per bank write bursts
system.mem_ctrls1.perBankWrBursts::7           142701                       # Per bank write bursts
system.mem_ctrls1.perBankWrBursts::8           143358                       # Per bank write bursts
system.mem_ctrls1.perBankWrBursts::9           144209                       # Per bank write bursts
system.mem_ctrls1.perBankWrBursts::10          142951                       # Per bank write bursts
system.mem_ctrls1.perBankWrBursts::11          139906                       # Per bank write bursts
system.mem_ctrls1.perBankWrBursts::12          141689                       # Per bank write bursts
system.mem_ctrls1.perBankWrBursts::13          145469                       # Per bank write bursts
system.mem_ctrls1.perBankWrBursts::14          148574                       # Per bank write bursts
system.mem_ctrls1.perBankWrBursts::15          153814                       # Per bank write bursts
system.mem_ctrls1.numRdRetry                        0                       # Number of times read queue was full causing retry
system.mem_ctrls1.numWrRetry                        0                       # Number of times write queue was full causing retry
system.mem_ctrls1.totGap                 2941451498439                       # Total gap between requests
system.mem_ctrls1.readPktSize::0                    0                       # Read request sizes (log2)
system.mem_ctrls1.readPktSize::1                    0                       # Read request sizes (log2)
system.mem_ctrls1.readPktSize::2                    0                       # Read request sizes (log2)
system.mem_ctrls1.readPktSize::3                    0                       # Read request sizes (log2)
system.mem_ctrls1.readPktSize::4                    0                       # Read request sizes (log2)
system.mem_ctrls1.readPktSize::5                    0                       # Read request sizes (log2)
system.mem_ctrls1.readPktSize::6              7767043                       # Read request sizes (log2)
system.mem_ctrls1.writePktSize::0                   0                       # Write request sizes (log2)
system.mem_ctrls1.writePktSize::1                   0                       # Write request sizes (log2)
system.mem_ctrls1.writePktSize::2                   0                       # Write request sizes (log2)
system.mem_ctrls1.writePktSize::3                   0                       # Write request sizes (log2)
system.mem_ctrls1.writePktSize::4                   0                       # Write request sizes (log2)
system.mem_ctrls1.writePktSize::5                   0                       # Write request sizes (log2)
system.mem_ctrls1.writePktSize::6             2390687                       # Write request sizes (log2)
system.mem_ctrls1.rdQLenPdf::0                6655787                       # What read queue length does an incoming req see
system.mem_ctrls1.rdQLenPdf::1                 910729                       # What read queue length does an incoming req see
system.mem_ctrls1.rdQLenPdf::2                 183508                       # What read queue length does an incoming req see
system.mem_ctrls1.rdQLenPdf::3                  12330                       # What read queue length does an incoming req see
system.mem_ctrls1.rdQLenPdf::4                      2                       # What read queue length does an incoming req see
system.mem_ctrls1.rdQLenPdf::5                      0                       # What read queue length does an incoming req see
system.mem_ctrls1.rdQLenPdf::6                      0                       # What read queue length does an incoming req see
system.mem_ctrls1.rdQLenPdf::7                      0                       # What read queue length does an incoming req see
system.mem_ctrls1.rdQLenPdf::8                      0                       # What read queue length does an incoming req see
system.mem_ctrls1.rdQLenPdf::9                      0                       # What read queue length does an incoming req see
system.mem_ctrls1.rdQLenPdf::10                     0                       # What read queue length does an incoming req see
system.mem_ctrls1.rdQLenPdf::11                     0                       # What read queue length does an incoming req see
system.mem_ctrls1.rdQLenPdf::12                     0                       # What read queue length does an incoming req see
system.mem_ctrls1.rdQLenPdf::13                     0                       # What read queue length does an incoming req see
system.mem_ctrls1.rdQLenPdf::14                     0                       # What read queue length does an incoming req see
system.mem_ctrls1.rdQLenPdf::15                     0                       # What read queue length does an incoming req see
system.mem_ctrls1.rdQLenPdf::16                     0                       # What read queue length does an incoming req see
system.mem_ctrls1.rdQLenPdf::17                     0                       # What read queue length does an incoming req see
system.mem_ctrls1.rdQLenPdf::18                     0                       # What read queue length does an incoming req see
system.mem_ctrls1.rdQLenPdf::19                     0                       # What read queue length does an incoming req see
system.mem_ctrls1.rdQLenPdf::20                     0                       # What read queue length does an incoming req see
system.mem_ctrls1.rdQLenPdf::21                     0                       # What read queue length does an incoming req see
system.mem_ctrls1.rdQLenPdf::22                     0                       # What read queue length does an incoming req see
system.mem_ctrls1.rdQLenPdf::23                     0                       # What read queue length does an incoming req see
system.mem_ctrls1.rdQLenPdf::24                     0                       # What read queue length does an incoming req see
system.mem_ctrls1.rdQLenPdf::25                     0                       # What read queue length does an incoming req see
system.mem_ctrls1.rdQLenPdf::26                     0                       # What read queue length does an incoming req see
system.mem_ctrls1.rdQLenPdf::27                     0                       # What read queue length does an incoming req see
system.mem_ctrls1.rdQLenPdf::28                     0                       # What read queue length does an incoming req see
system.mem_ctrls1.rdQLenPdf::29                     0                       # What read queue length does an incoming req see
system.mem_ctrls1.rdQLenPdf::30                     0                       # What read queue length does an incoming req see
system.mem_ctrls1.rdQLenPdf::31                     0                       # What read queue length does an incoming req see
system.mem_ctrls1.wrQLenPdf::0                      2                       # What write queue length does an incoming req see
system.mem_ctrls1.wrQLenPdf::1                      2                       # What write queue length does an incoming req see
system.mem_ctrls1.wrQLenPdf::2                      2                       # What write queue length does an incoming req see
system.mem_ctrls1.wrQLenPdf::3                      2                       # What write queue length does an incoming req see
system.mem_ctrls1.wrQLenPdf::4                      2                       # What write queue length does an incoming req see
system.mem_ctrls1.wrQLenPdf::5                      2                       # What write queue length does an incoming req see
system.mem_ctrls1.wrQLenPdf::6                      2                       # What write queue length does an incoming req see
system.mem_ctrls1.wrQLenPdf::7                      2                       # What write queue length does an incoming req see
system.mem_ctrls1.wrQLenPdf::8                      2                       # What write queue length does an incoming req see
system.mem_ctrls1.wrQLenPdf::9                      2                       # What write queue length does an incoming req see
system.mem_ctrls1.wrQLenPdf::10                     2                       # What write queue length does an incoming req see
system.mem_ctrls1.wrQLenPdf::11                     2                       # What write queue length does an incoming req see
system.mem_ctrls1.wrQLenPdf::12                     2                       # What write queue length does an incoming req see
system.mem_ctrls1.wrQLenPdf::13                     2                       # What write queue length does an incoming req see
system.mem_ctrls1.wrQLenPdf::14                     2                       # What write queue length does an incoming req see
system.mem_ctrls1.wrQLenPdf::15                 96092                       # What write queue length does an incoming req see
system.mem_ctrls1.wrQLenPdf::16                100088                       # What write queue length does an incoming req see
system.mem_ctrls1.wrQLenPdf::17                131786                       # What write queue length does an incoming req see
system.mem_ctrls1.wrQLenPdf::18                136556                       # What write queue length does an incoming req see
system.mem_ctrls1.wrQLenPdf::19                137201                       # What write queue length does an incoming req see
system.mem_ctrls1.wrQLenPdf::20                137337                       # What write queue length does an incoming req see
system.mem_ctrls1.wrQLenPdf::21                137514                       # What write queue length does an incoming req see
system.mem_ctrls1.wrQLenPdf::22                138204                       # What write queue length does an incoming req see
system.mem_ctrls1.wrQLenPdf::23                137877                       # What write queue length does an incoming req see
system.mem_ctrls1.wrQLenPdf::24                137491                       # What write queue length does an incoming req see
system.mem_ctrls1.wrQLenPdf::25                137391                       # What write queue length does an incoming req see
system.mem_ctrls1.wrQLenPdf::26                137463                       # What write queue length does an incoming req see
system.mem_ctrls1.wrQLenPdf::27                137482                       # What write queue length does an incoming req see
system.mem_ctrls1.wrQLenPdf::28                137479                       # What write queue length does an incoming req see
system.mem_ctrls1.wrQLenPdf::29                137783                       # What write queue length does an incoming req see
system.mem_ctrls1.wrQLenPdf::30                138845                       # What write queue length does an incoming req see
system.mem_ctrls1.wrQLenPdf::31                136732                       # What write queue length does an incoming req see
system.mem_ctrls1.wrQLenPdf::32                136667                       # What write queue length does an incoming req see
system.mem_ctrls1.wrQLenPdf::33                   629                       # What write queue length does an incoming req see
system.mem_ctrls1.wrQLenPdf::34                    35                       # What write queue length does an incoming req see
system.mem_ctrls1.wrQLenPdf::35                     5                       # What write queue length does an incoming req see
system.mem_ctrls1.wrQLenPdf::36                     0                       # What write queue length does an incoming req see
system.mem_ctrls1.wrQLenPdf::37                     0                       # What write queue length does an incoming req see
system.mem_ctrls1.wrQLenPdf::38                     0                       # What write queue length does an incoming req see
system.mem_ctrls1.wrQLenPdf::39                     0                       # What write queue length does an incoming req see
system.mem_ctrls1.wrQLenPdf::40                     0                       # What write queue length does an incoming req see
system.mem_ctrls1.wrQLenPdf::41                     0                       # What write queue length does an incoming req see
system.mem_ctrls1.wrQLenPdf::42                     0                       # What write queue length does an incoming req see
system.mem_ctrls1.wrQLenPdf::43                     0                       # What write queue length does an incoming req see
system.mem_ctrls1.wrQLenPdf::44                     0                       # What write queue length does an incoming req see
system.mem_ctrls1.wrQLenPdf::45                     0                       # What write queue length does an incoming req see
system.mem_ctrls1.wrQLenPdf::46                     0                       # What write queue length does an incoming req see
system.mem_ctrls1.wrQLenPdf::47                     0                       # What write queue length does an incoming req see
system.mem_ctrls1.wrQLenPdf::48                     0                       # What write queue length does an incoming req see
system.mem_ctrls1.wrQLenPdf::49                     0                       # What write queue length does an incoming req see
system.mem_ctrls1.wrQLenPdf::50                     0                       # What write queue length does an incoming req see
system.mem_ctrls1.wrQLenPdf::51                     0                       # What write queue length does an incoming req see
system.mem_ctrls1.wrQLenPdf::52                     0                       # What write queue length does an incoming req see
system.mem_ctrls1.wrQLenPdf::53                     0                       # What write queue length does an incoming req see
system.mem_ctrls1.wrQLenPdf::54                     0                       # What write queue length does an incoming req see
system.mem_ctrls1.wrQLenPdf::55                     0                       # What write queue length does an incoming req see
system.mem_ctrls1.wrQLenPdf::56                     0                       # What write queue length does an incoming req see
system.mem_ctrls1.wrQLenPdf::57                     0                       # What write queue length does an incoming req see
system.mem_ctrls1.wrQLenPdf::58                     0                       # What write queue length does an incoming req see
system.mem_ctrls1.wrQLenPdf::59                     0                       # What write queue length does an incoming req see
system.mem_ctrls1.wrQLenPdf::60                     0                       # What write queue length does an incoming req see
system.mem_ctrls1.wrQLenPdf::61                     0                       # What write queue length does an incoming req see
system.mem_ctrls1.wrQLenPdf::62                     0                       # What write queue length does an incoming req see
system.mem_ctrls1.wrQLenPdf::63                     0                       # What write queue length does an incoming req see
system.mem_ctrls1.bytesPerActivate::samples      3829579                       # Bytes accessed per row activation
system.mem_ctrls1.bytesPerActivate::mean   169.677438                       # Bytes accessed per row activation
system.mem_ctrls1.bytesPerActivate::gmean   121.105414                       # Bytes accessed per row activation
system.mem_ctrls1.bytesPerActivate::stdev   177.941318                       # Bytes accessed per row activation
system.mem_ctrls1.bytesPerActivate::0-127      1782153     46.54%     46.54% # Bytes accessed per row activation
system.mem_ctrls1.bytesPerActivate::128-255      1259924     32.90%     79.44% # Bytes accessed per row activation
system.mem_ctrls1.bytesPerActivate::256-383       283041      7.39%     86.83% # Bytes accessed per row activation
system.mem_ctrls1.bytesPerActivate::384-511       204263      5.33%     92.16% # Bytes accessed per row activation
system.mem_ctrls1.bytesPerActivate::512-639       185258      4.84%     97.00% # Bytes accessed per row activation
system.mem_ctrls1.bytesPerActivate::640-767        31174      0.81%     97.81% # Bytes accessed per row activation
system.mem_ctrls1.bytesPerActivate::768-895        17377      0.45%     98.27% # Bytes accessed per row activation
system.mem_ctrls1.bytesPerActivate::896-1023        14887      0.39%     98.66% # Bytes accessed per row activation
system.mem_ctrls1.bytesPerActivate::1024-1151        51502      1.34%    100.00% # Bytes accessed per row activation
system.mem_ctrls1.bytesPerActivate::total      3829579                       # Bytes accessed per row activation
system.mem_ctrls1.rdPerTurnAround::samples       136415                       # Reads before turning the bus around for writes
system.mem_ctrls1.rdPerTurnAround::mean     56.902408                       # Reads before turning the bus around for writes
system.mem_ctrls1.rdPerTurnAround::gmean    49.188103                       # Reads before turning the bus around for writes
system.mem_ctrls1.rdPerTurnAround::stdev    93.065695                       # Reads before turning the bus around for writes
system.mem_ctrls1.rdPerTurnAround::0-1023       136407     99.99%     99.99% # Reads before turning the bus around for writes
system.mem_ctrls1.rdPerTurnAround::1024-2047            7      0.01%    100.00% # Reads before turning the bus around for writes
system.mem_ctrls1.rdPerTurnAround::31744-32767            1      0.00%    100.00% # Reads before turning the bus around for writes
system.mem_ctrls1.rdPerTurnAround::total       136415                       # Reads before turning the bus around for writes
system.mem_ctrls1.wrPerTurnAround::samples       136415                       # Writes before turning the bus around for reads
system.mem_ctrls1.wrPerTurnAround::mean     17.524972                       # Writes before turning the bus around for reads
system.mem_ctrls1.wrPerTurnAround::gmean    17.497130                       # Writes before turning the bus around for reads
system.mem_ctrls1.wrPerTurnAround::stdev     0.976105                       # Writes before turning the bus around for reads
system.mem_ctrls1.wrPerTurnAround::16           36096     26.46%     26.46% # Writes before turning the bus around for reads
system.mem_ctrls1.wrPerTurnAround::17            3244      2.38%     28.84% # Writes before turning the bus around for reads
system.mem_ctrls1.wrPerTurnAround::18           87533     64.17%     93.01% # Writes before turning the bus around for reads
system.mem_ctrls1.wrPerTurnAround::19            8556      6.27%     99.28% # Writes before turning the bus around for reads
system.mem_ctrls1.wrPerTurnAround::20             896      0.66%     99.93% # Writes before turning the bus around for reads
system.mem_ctrls1.wrPerTurnAround::21              81      0.06%     99.99% # Writes before turning the bus around for reads
system.mem_ctrls1.wrPerTurnAround::22               7      0.01%    100.00% # Writes before turning the bus around for reads
system.mem_ctrls1.wrPerTurnAround::23               1      0.00%    100.00% # Writes before turning the bus around for reads
system.mem_ctrls1.wrPerTurnAround::29               1      0.00%    100.00% # Writes before turning the bus around for reads
system.mem_ctrls1.wrPerTurnAround::total       136415                       # Writes before turning the bus around for reads
system.mem_ctrls1.totQLat                163652909987                       # Total ticks spent queuing
system.mem_ctrls1.totMemAccLat           309197084987                       # Total ticks spent from burst creation until serviced by the DRAM
system.mem_ctrls1.totBusLat               38811780000                       # Total ticks spent in databus transfers
system.mem_ctrls1.avgQLat                    21082.89                       # Average queueing delay per DRAM burst
system.mem_ctrls1.avgBusLat                   5000.00                       # Average bus latency per DRAM burst
system.mem_ctrls1.avgMemAccLat               39832.89                       # Average memory access latency per DRAM burst
system.mem_ctrls1.avgRdBW                      168.89                       # Average DRAM read bandwidth in MiByte/s
system.mem_ctrls1.avgWrBW                       52.02                       # Average achieved write bandwidth in MiByte/s
system.mem_ctrls1.avgRdBWSys                   169.00                       # Average system read bandwidth in MiByte/s
system.mem_ctrls1.avgWrBWSys                    52.02                       # Average system write bandwidth in MiByte/s
system.mem_ctrls1.peakBW                     12800.00                       # Theoretical peak bandwidth in MiByte/s
system.mem_ctrls1.busUtil                        1.73                       # Data bus utilization in percentage
system.mem_ctrls1.busUtilRead                    1.32                       # Data bus utilization in percentage for reads
system.mem_ctrls1.busUtilWrite                   0.41                       # Data bus utilization in percentage for writes
system.mem_ctrls1.avgRdQLen                      1.07                       # Average read queue length when enqueuing
system.mem_ctrls1.avgWrQLen                     24.47                       # Average write queue length when enqueuing
system.mem_ctrls1.readRowHits                 4977618                       # Number of row buffer hits during reads
system.mem_ctrls1.writeRowHits                1345827                       # Number of row buffer hits during writes
system.mem_ctrls1.readRowHitRate                64.13                       # Row buffer hit rate for reads
system.mem_ctrls1.writeRowHitRate               56.29                       # Row buffer hit rate for writes
system.mem_ctrls1.avgGap                    289577.64                       # Average gap between requests
system.mem_ctrls1.pageHitRate                   62.28                       # Row buffer hit rate, read and write combined
system.mem_ctrls1_0.actEnergy             13878546360                       # Energy for activate commands per rank (pJ)
system.mem_ctrls1_0.preEnergy              7376622330                       # Energy for precharge commands per rank (pJ)
system.mem_ctrls1_0.readEnergy            28054209540                       # Energy for read commands per rank (pJ)
system.mem_ctrls1_0.writeEnergy            6424248780                       # Energy for write commands per rank (pJ)
system.mem_ctrls1_0.refreshEnergy        229314193680.000061                       # Energy for refresh commands per rank (pJ)
system.mem_ctrls1_0.actBackEnergy        141214334220                       # Energy for active background per rank (pJ)
system.mem_ctrls1_0.preBackEnergy          7311503520                       # Energy for precharge background per rank (pJ)
system.mem_ctrls1_0.actPowerDownEnergy   937575137340                       # Energy for active power-down per rank (pJ)
system.mem_ctrls1_0.prePowerDownEnergy   149720912640                       # Energy for precharge power-down per rank (pJ)
system.mem_ctrls1_0.selfRefreshEnergy     49950224625                       # Energy for self refresh per rank (pJ)
system.mem_ctrls1_0.totalEnergy          1570860407535                       # Total energy per rank (pJ)
system.mem_ctrls1_0.averagePower           534.042568                       # Core power per rank (mW)
system.mem_ctrls1_0.totalIdleTime        2612649090618                       # Total Idle time Per DRAM Rank
system.mem_ctrls1_0.memoryStateTime::IDLE   7032114541                       # Time in different power states
system.mem_ctrls1_0.memoryStateTime::REF  97115096000                       # Time in different power states
system.mem_ctrls1_0.memoryStateTime::SREF 166656689732                       # Time in different power states
system.mem_ctrls1_0.memoryStateTime::PRE_PDN 389905647018                       # Time in different power states
system.mem_ctrls1_0.memoryStateTime::ACT 224652834073                       # Time in different power states
system.mem_ctrls1_0.memoryStateTime::ACT_PDN 2056089273252                       # Time in different power states
system.mem_ctrls1_1.actEnergy             13464654840                       # Energy for activate commands per rank (pJ)
system.mem_ctrls1_1.preEnergy              7156629975                       # Energy for precharge commands per rank (pJ)
system.mem_ctrls1_1.readEnergy            27369012300                       # Energy for read commands per rank (pJ)
system.mem_ctrls1_1.writeEnergy            6055043400                       # Energy for write commands per rank (pJ)
system.mem_ctrls1_1.refreshEnergy        228647923920.000061                       # Energy for refresh commands per rank (pJ)
system.mem_ctrls1_1.actBackEnergy        140981350710                       # Energy for active background per rank (pJ)
system.mem_ctrls1_1.preBackEnergy          7453889760                       # Energy for precharge background per rank (pJ)
system.mem_ctrls1_1.actPowerDownEnergy   920547704610                       # Energy for active power-down per rank (pJ)
system.mem_ctrls1_1.prePowerDownEnergy   155847196800                       # Energy for precharge power-down per rank (pJ)
system.mem_ctrls1_1.selfRefreshEnergy     56115697560                       # Energy for self refresh per rank (pJ)
system.mem_ctrls1_1.totalEnergy          1563690304875                       # Total energy per rank (pJ)
system.mem_ctrls1_1.averagePower           531.604961                       # Core power per rank (mW)
system.mem_ctrls1_1.totalIdleTime        2612765027552                       # Total Idle time Per DRAM Rank
system.mem_ctrls1_1.memoryStateTime::IDLE   7544327944                       # Time in different power states
system.mem_ctrls1_1.memoryStateTime::REF  96844374000                       # Time in different power states
system.mem_ctrls1_1.memoryStateTime::SREF 188159803239                       # Time in different power states
system.mem_ctrls1_1.memoryStateTime::PRE_PDN 405860473256                       # Time in different power states
system.mem_ctrls1_1.memoryStateTime::ACT 224297808678                       # Time in different power states
system.mem_ctrls1_1.memoryStateTime::ACT_PDN 2018744867499                       # Time in different power states
system.pwrStateResidencyTicks::UNDEFINED 76211605455318                       # Cumulative time (in ticks) in various power states
system.cpu.branchPred.lookups                       2                       # Number of BP lookups
system.cpu.branchPred.condPredicted                 2                       # Number of conditional branches predicted
system.cpu.branchPred.condIncorrect                 1                       # Number of conditional branches incorrect
system.cpu.branchPred.BTBLookups                    0                       # Number of BTB lookups
system.cpu.branchPred.BTBHits                       0                       # Number of BTB hits
system.cpu.branchPred.BTBCorrect                    0                       # Number of correct BTB predictions (this stat may not work properly.
system.cpu.branchPred.BTBHitPct                   nan                       # BTB Hit Percentage
system.cpu.branchPred.usedRAS                       0                       # Number of times the RAS was used to get a target.
system.cpu.branchPred.RASInCorrect                  0                       # Number of incorrect RAS predictions.
system.cpu.branchPred.indirectLookups               0                       # Number of indirect predictor lookups.
system.cpu.branchPred.indirectHits                  0                       # Number of indirect target hits.
system.cpu.branchPred.indirectMisses                0                       # Number of indirect misses.
system.cpu.branchPredindirectMispredicted            0                       # Number of mispredicted indirect branches.
system.cpu_voltage_domain.voltage                   1                       # Voltage in Volts
system.cpu_clk_domain.clock                       333                       # Clock period in ticks
system.cpu.dtb.fetch_hits                           0                       # ITB hits
system.cpu.dtb.fetch_misses                         0                       # ITB misses
system.cpu.dtb.fetch_acv                            0                       # ITB acv
system.cpu.dtb.fetch_accesses                       0                       # ITB accesses
system.cpu.dtb.read_hits                           28                       # DTB read hits
system.cpu.dtb.read_misses                          0                       # DTB read misses
system.cpu.dtb.read_acv                             0                       # DTB read access violations
system.cpu.dtb.read_accesses                       28                       # DTB read accesses
system.cpu.dtb.write_hits                           3                       # DTB write hits
system.cpu.dtb.write_misses                         0                       # DTB write misses
system.cpu.dtb.write_acv                            0                       # DTB write access violations
system.cpu.dtb.write_accesses                       3                       # DTB write accesses
system.cpu.dtb.data_hits                           31                       # DTB hits
system.cpu.dtb.data_misses                          0                       # DTB misses
system.cpu.dtb.data_acv                             0                       # DTB access violations
system.cpu.dtb.data_accesses                       31                       # DTB accesses
system.cpu.itb.fetch_hits                           7                       # ITB hits
system.cpu.itb.fetch_misses                         0                       # ITB misses
system.cpu.itb.fetch_acv                            0                       # ITB acv
system.cpu.itb.fetch_accesses                       7                       # ITB accesses
system.cpu.itb.read_hits                            0                       # DTB read hits
system.cpu.itb.read_misses                          0                       # DTB read misses
system.cpu.itb.read_acv                             0                       # DTB read access violations
system.cpu.itb.read_accesses                        0                       # DTB read accesses
system.cpu.itb.write_hits                           0                       # DTB write hits
system.cpu.itb.write_misses                         0                       # DTB write misses
system.cpu.itb.write_acv                            0                       # DTB write access violations
system.cpu.itb.write_accesses                       0                       # DTB write accesses
system.cpu.itb.data_hits                            0                       # DTB hits
system.cpu.itb.data_misses                          0                       # DTB misses
system.cpu.itb.data_acv                             0                       # DTB access violations
system.cpu.itb.data_accesses                        0                       # DTB accesses
system.cpu.workload.num_syscalls                    0                       # Number of system calls
system.cpu.pwrStateResidencyTicks::ON    2941451654616                       # Cumulative time (in ticks) in various power states
system.cpu.numCycles                             1461                       # number of cpu cycles simulated
system.cpu.numWorkItemsStarted                      0                       # number of work items this cpu started
system.cpu.numWorkItemsCompleted                    0                       # number of work items this cpu completed
system.cpu.fetch.icacheStallCycles                 55                       # Number of cycles fetch is stalled on an Icache miss
system.cpu.fetch.Insts                             51                       # Number of instructions fetch has processed
system.cpu.fetch.Branches                           2                       # Number of branches that fetch encountered
system.cpu.fetch.Cycles                             7                       # Number of cycles fetch has run and was not squashing or blocked
system.cpu.fetch.SquashCycles                       5                       # Number of cycles fetch has spent squashing
system.cpu.fetch.PendingDrainCycles                10                       # Number of cycles fetch has spent waiting on pipes to drain
system.cpu.fetch.CacheLines                         7                       # Number of cache lines fetched
system.cpu.fetch.IcacheSquashes                     3                       # Number of outstanding Icache misses that were squashed
system.cpu.fetch.rateDist::samples                 74                       # Number of instructions fetched each cycle (Total)
system.cpu.fetch.rateDist::mean              0.689189                       # Number of instructions fetched each cycle (Total)
system.cpu.fetch.rateDist::stdev             2.189174                       # Number of instructions fetched each cycle (Total)
system.cpu.fetch.rateDist::underflows               0      0.00%      0.00% # Number of instructions fetched each cycle (Total)
system.cpu.fetch.rateDist::0                       67     90.54%     90.54% # Number of instructions fetched each cycle (Total)
[...]
system.switch_cpus_1.iq.int_inst_queue_writes    709780210                       # Number of integer instruction queue writes
system.switch_cpus_1.iq.int_inst_queue_wakeup_accesses    696715531                       # Number of integer instruction queue wakeup accesses
system.switch_cpus_1.iq.fp_inst_queue_reads    776215576                       # Number of floating instruction queue reads
system.switch_cpus_1.iq.fp_inst_queue_writes    323063498                       # Number of floating instruction queue writes
system.switch_cpus_1.iq.fp_inst_queue_wakeup_accesses    314250576                       # Number of floating instruction queue wakeup accesses
system.switch_cpus_1.iq.int_alu_accesses    773979305                       # Number of integer alu accesses
system.switch_cpus_1.iq.fp_alu_accesses     418922546                       # Number of floating point alu accesses
system.switch_cpus_1.iew.lsq.thread0.forwLoads      6848700                       # Number of loads that had data forwarded from stores
system.switch_cpus_1.iew.lsq.thread0.invAddrLoads            0                       # Number of loads ignored due to an invalid address
system.switch_cpus_1.iew.lsq.thread0.squashedLoads      5598116                       # Number of loads squashed
system.switch_cpus_1.iew.lsq.thread0.ignoredResponses         3219                       # Number of memory responses ignored because the instruction is squashed
system.switch_cpus_1.iew.lsq.thread0.memOrderViolation         2038                       # Number of memory ordering violations
system.switch_cpus_1.iew.lsq.thread0.squashedStores      1016789                       # Number of stores squashed
system.switch_cpus_1.iew.lsq.thread0.invAddrSwpfs            0                       # Number of software prefetches ignored due to an invalid address
system.switch_cpus_1.iew.lsq.thread0.blockedLoads            0                       # Number of blocked loads due to partial load-store forwarding
system.switch_cpus_1.iew.lsq.thread0.rescheduledLoads            0                       # Number of loads that were rescheduled
system.switch_cpus_1.iew.lsq.thread0.cacheBlocked     70779478                       # Number of times an access to memory failed due to the cache being blocked
system.switch_cpus_1.iew.iewIdleCycles              0                       # Number of cycles IEW is idle
system.switch_cpus_1.iew.iewSquashCycles       378835                       # Number of cycles IEW is squashing
system.switch_cpus_1.iew.iewBlockCycles     408201589                       # Number of cycles IEW is blocking
system.switch_cpus_1.iew.iewUnblockCycles    245819147                       # Number of cycles IEW is unblocking
system.switch_cpus_1.iew.iewDispatchedInsts   1016806144                       # Number of instructions dispatched to IQ
system.switch_cpus_1.iew.iewDispSquashedInsts       311505                       # Number of squashed instructions skipped by dispatch
system.switch_cpus_1.iew.iewDispLoadInsts    331868542                       # Number of dispatched load instructions
system.switch_cpus_1.iew.iewDispStoreInsts     53456390                       # Number of dispatched store instructions
system.switch_cpus_1.iew.iewDispNonSpecInsts          390                       # Number of dispatched non-speculative instructions
system.switch_cpus_1.iew.iewIQFullEvents      1681750                       # Number of times the IQ has become full, causing a stall
system.switch_cpus_1.iew.iewLSQFullEvents    242509447                       # Number of times the LSQ has become full, causing a stall
system.switch_cpus_1.iew.memOrderViolationEvents         2038                       # Number of memory order violations
system.switch_cpus_1.iew.predictedTakenIncorrect       252078                       # Number of branches that were predicted taken incorrectly
system.switch_cpus_1.iew.predictedNotTakenIncorrect         2622                       # Number of branches that were predicted not taken incorrectly
system.switch_cpus_1.iew.branchMispredicts       254700                       # Number of branch mispredicts detected at execute
system.switch_cpus_1.iew.iewExecutedInsts   1081087330                       # Number of executed instructions
system.switch_cpus_1.iew.iewExecLoadInsts    399810331                       # Number of load instructions executed
system.switch_cpus_1.iew.iewExecSquashedInsts       594978                       # Number of squashed instructions skipped in execute
system.switch_cpus_1.iew.exec_swp                   0                       # number of swp insts executed
system.switch_cpus_1.iew.exec_nop              385276                       # number of nop insts executed
system.switch_cpus_1.iew.exec_refs          452571309                       # number of memory reference insts executed
system.switch_cpus_1.iew.exec_branches       28871774                       # Number of branches executed
system.switch_cpus_1.iew.exec_stores         52760978                       # Number of stores executed
system.switch_cpus_1.iew.exec_rate           0.560968                       # Inst execution rate
system.switch_cpus_1.iew.wb_sent           1011813702                       # cumulative count of insts sent to commit
system.switch_cpus_1.iew.wb_count          1010966107                       # cumulative count of insts written-back
system.switch_cpus_1.iew.wb_producers       682466934                       # num instructions producing a value
system.switch_cpus_1.iew.wb_consumers       751805899                       # num instructions consuming a value
system.switch_cpus_1.iew.wb_rate             0.524583                       # insts written-back per cycle
system.switch_cpus_1.iew.wb_fanout           0.907770                       # average fanout of values written-back
system.switch_cpus_1.commit.commitSquashedInsts     15645098                       # The number of squashed insts skipped by commit
system.switch_cpus_1.commit.commitNonSpecStalls          600                       # The number of times commit has been forced to stall to communicate backwards
system.switch_cpus_1.commit.branchMispredicts       246688                       # The number of times a branch was mispredicted
system.switch_cpus_1.commit.committed_per_cycle::samples   1924835334                       # Number of insts commited each cycle
system.switch_cpus_1.commit.committed_per_cycle::mean     0.519703                       # Number of insts commited each cycle
system.switch_cpus_1.commit.committed_per_cycle::stdev     1.842312                       # Number of insts commited each cycle
system.switch_cpus_1.commit.committed_per_cycle::underflows            0      0.00%      0.00% # Number of insts commited each cycle
system.switch_cpus_1.commit.committed_per_cycle::0   1739579259     90.38%     90.38% # Number of insts commited each cycle
system.switch_cpus_1.commit.committed_per_cycle::1     41855033      2.17%     92.55% # Number of insts commited each cycle
system.switch_cpus_1.commit.committed_per_cycle::2      9643140      0.50%     93.05% # Number of insts commited each cycle
system.switch_cpus_1.commit.committed_per_cycle::3     10377871      0.54%     93.59% # Number of insts commited each cycle
system.switch_cpus_1.commit.committed_per_cycle::4      9698544      0.50%     94.09% # Number of insts commited each cycle
system.switch_cpus_1.commit.committed_per_cycle::5      6588408      0.34%     94.44% # Number of insts commited each cycle
system.switch_cpus_1.commit.committed_per_cycle::6      5755934      0.30%     94.74% # Number of insts commited each cycle
system.switch_cpus_1.commit.committed_per_cycle::7      8901266      0.46%     95.20% # Number of insts commited each cycle
system.switch_cpus_1.commit.committed_per_cycle::8     92435879      4.80%    100.00% # Number of insts commited each cycle
system.switch_cpus_1.commit.committed_per_cycle::overflows            0      0.00%    100.00% # Number of insts commited each cycle
system.switch_cpus_1.commit.committed_per_cycle::min_value            0                       # Number of insts commited each cycle
system.switch_cpus_1.commit.committed_per_cycle::max_value            8                       # Number of insts commited each cycle
system.switch_cpus_1.commit.committed_per_cycle::total   1924835334                       # Number of insts commited each cycle
system.switch_cpus_1.commit.committedInsts   1000342640                       # Number of instructions committed
system.switch_cpus_1.commit.committedOps   1000342640                       # Number of ops (including micro ops) committed
system.switch_cpus_1.commit.swp_count               0                       # Number of s/w prefetches committed
system.switch_cpus_1.commit.refs            378710012                       # Number of memory references committed
system.switch_cpus_1.commit.loads           326270412                       # Number of loads committed
system.switch_cpus_1.commit.membars               300                       # Number of memory barriers committed
system.switch_cpus_1.commit.branches         28253899                       # Number of branches committed
system.switch_cpus_1.commit.fp_insts        312284005                       # Number of committed floating point instructions.
system.switch_cpus_1.commit.int_insts       845535111                       # Number of committed integer instructions.
system.switch_cpus_1.commit.function_calls          310                       # Number of function calls committed.
system.switch_cpus_1.commit.op_class_0::No_OpClass       342637      0.03%      0.03% # Class of committed instruction
system.switch_cpus_1.commit.op_class_0::IntAlu    359442994     35.93%     35.97% # Class of committed instruction
system.switch_cpus_1.commit.op_class_0::IntMult    107489742     10.75%     46.71% # Class of committed instruction
system.switch_cpus_1.commit.op_class_0::IntDiv            0      0.00%     46.71% # Class of committed instruction
system.switch_cpus_1.commit.op_class_0::FloatAdd     75768481      7.57%     54.29% # Class of committed instruction
system.switch_cpus_1.commit.op_class_0::FloatCmp            0      0.00%     54.29% # Class of committed instruction
system.switch_cpus_1.commit.op_class_0::FloatCvt        12222      0.00%     54.29% # Class of committed instruction
system.switch_cpus_1.commit.op_class_0::FloatMult     70713607      7.07%     61.36% # Class of committed instruction
system.switch_cpus_1.commit.op_class_0::FloatMultAcc            0      0.00%     61.36% # Class of committed instruction
system.switch_cpus_1.commit.op_class_0::FloatDiv      7026845      0.70%     62.06% # Class of committed instruction
system.switch_cpus_1.commit.op_class_0::FloatMisc            0      0.00%     62.06% # Class of committed instruction
system.switch_cpus_1.commit.op_class_0::FloatSqrt       835800      0.08%     62.14% # Class of committed instruction
system.switch_cpus_1.commit.op_class_0::SimdAdd            0      0.00%     62.14% # Class of committed instruction
system.switch_cpus_1.commit.op_class_0::SimdAddAcc            0      0.00%     62.14% # Class of committed instruction
system.switch_cpus_1.commit.op_class_0::SimdAlu            0      0.00%     62.14% # Class of committed instruction
system.switch_cpus_1.commit.op_class_0::SimdCmp            0      0.00%     62.14% # Class of committed instruction
system.switch_cpus_1.commit.op_class_0::SimdCvt            0      0.00%     62.14% # Class of committed instruction
system.switch_cpus_1.commit.op_class_0::SimdMisc            0      0.00%     62.14% # Class of committed instruction
system.switch_cpus_1.commit.op_class_0::SimdMult            0      0.00%     62.14% # Class of committed instruction
system.switch_cpus_1.commit.op_class_0::SimdMultAcc            0      0.00%     62.14% # Class of committed instruction
system.switch_cpus_1.commit.op_class_0::SimdShift            0      0.00%     62.14% # Class of committed instruction
system.switch_cpus_1.commit.op_class_0::SimdShiftAcc            0      0.00%     62.14% # Class of committed instruction
system.switch_cpus_1.commit.op_class_0::SimdSqrt            0      0.00%     62.14% # Class of committed instruction
system.switch_cpus_1.commit.op_class_0::SimdFloatAdd            0      0.00%     62.14% # Class of committed instruction
system.switch_cpus_1.commit.op_class_0::SimdFloatAlu            0      0.00%     62.14% # Class of committed instruction
system.switch_cpus_1.commit.op_class_0::SimdFloatCmp            0      0.00%     62.14% # Class of committed instruction
system.switch_cpus_1.commit.op_class_0::SimdFloatCvt            0      0.00%     62.14% # Class of committed instruction
system.switch_cpus_1.commit.op_class_0::SimdFloatDiv            0      0.00%     62.14% # Class of committed instruction
system.switch_cpus_1.commit.op_class_0::SimdFloatMisc            0      0.00%     62.14% # Class of committed instruction
system.switch_cpus_1.commit.op_class_0::SimdFloatMult            0      0.00%     62.14% # Class of committed instruction
system.switch_cpus_1.commit.op_class_0::SimdFloatMultAcc            0      0.00%     62.14% # Class of committed instruction
system.switch_cpus_1.commit.op_class_0::SimdFloatSqrt            0      0.00%     62.14% # Class of committed instruction
system.switch_cpus_1.commit.op_class_0::MemRead    206322529     20.63%     82.77% # Class of committed instruction
system.switch_cpus_1.commit.op_class_0::MemWrite     14460733      1.45%     84.21% # Class of committed instruction
system.switch_cpus_1.commit.op_class_0::FloatMemRead    119948183     11.99%     96.20% # Class of committed instruction
system.switch_cpus_1.commit.op_class_0::FloatMemWrite     37978867      3.80%    100.00% # Class of committed instruction
system.switch_cpus_1.commit.op_class_0::IprAccess            0      0.00%    100.00% # Class of committed instruction
system.switch_cpus_1.commit.op_class_0::InstPrefetch            0      0.00%    100.00% # Class of committed instruction
system.switch_cpus_1.commit.op_class_0::total   1000342640                       # Class of committed instruction
system.switch_cpus_1.commit.bw_lim_events     92435879                       # number cycles where commit BW limit reached
system.switch_cpus_1.rob.rob_reads         2846691590                       # The number of ROB reads
system.switch_cpus_1.rob.rob_writes        2034088193                       # The number of ROB writes
system.switch_cpus_1.timesIdled                  1094                       # Number of times that the entire CPU went into an idle state and unscheduled itself
system.switch_cpus_1.idleCycles                232421                       # Total number of cycles that the CPU has spent unscheduled due to idling
system.switch_cpus_1.committedInsts        1000000003                       # Number of Instructions Simulated
system.switch_cpus_1.committedOps          1000000003                       # Number of Ops (including micro ops) Simulated
system.switch_cpus_1.cpi                     1.927180                       # CPI: Cycles Per Instruction
system.switch_cpus_1.cpi_total               1.927180                       # CPI: Total CPI of All Threads
system.switch_cpus_1.ipc                     0.518893                       # IPC: Instructions Per Cycle
system.switch_cpus_1.ipc_total               0.518893                       # IPC: Total IPC of All Threads
system.switch_cpus_1.int_regfile_reads     1310033693                       # number of integer regfile reads
system.switch_cpus_1.int_regfile_writes     653407767                       # number of integer regfile writes
system.switch_cpus_1.fp_regfile_reads       347486500                       # number of floating regfile reads
system.switch_cpus_1.fp_regfile_writes      276211092                       # number of floating regfile writes
system.switch_cpus_1.misc_regfile_reads           675                       # number of misc regfile reads
system.switch_cpus_1.misc_regfile_writes          600                       # number of misc regfile writes
system.tol3bus.snoop_filter.tot_requests     36162638                       # Total number of requests made to the snoop filter.
system.tol3bus.snoop_filter.hit_single_requests     18079001                       # Number of requests hitting in the snoop filter with a single holder of the requested data.
system.tol3bus.snoop_filter.hit_multi_requests            0                       # Number of requests hitting in the snoop filter with multiple (>1) holders of the requested data.
system.tol3bus.snoop_filter.tot_snoops        4334525                       # Total number of snoops made to the snoop filter.
system.tol3bus.snoop_filter.hit_single_snoops      4334525                       # Number of snoops hitting in the snoop filter with a single holder of the requested data.
system.tol3bus.snoop_filter.hit_multi_snoops            0                       # Number of snoops hitting in the snoop filter with multiple (>1) holders of the requested data.
system.tol3bus.pwrStateResidencyTicks::UNDEFINED 76211605455318                       # Cumulative time (in ticks) in various power states
system.tol3bus.trans_dist::ReadResp          13988054                       # Transaction distribution
system.tol3bus.trans_dist::WritebackDirty     10452235                       # Transaction distribution
system.tol3bus.trans_dist::CleanEvict        23459905                       # Transaction distribution
system.tol3bus.trans_dist::ReadExReq          4095583                       # Transaction distribution
system.tol3bus.trans_dist::ReadExResp         4095583                       # Transaction distribution
system.tol3bus.trans_dist::ReadSharedReq     13988054                       # Transaction distribution
system.tol3bus.pkt_count_system.cpu.l2.mem_side::system.l3.cpu_side     54246275                       # Packet count per connected master and slave (bytes)
system.tol3bus.pkt_size_system.cpu.l2.mem_side::system.l3.cpu_side   1520290368                       # Cumulative packet size per connected master and slave (bytes)
system.tol3bus.snoops                        15833139                       # Total snoops (count)
system.tol3bus.snoopTraffic                 306005440                       # Total snoop traffic (bytes)
system.tol3bus.snoop_fanout::samples         33916776                       # Request fanout histogram
system.tol3bus.snoop_fanout::mean            0.127799                       # Request fanout histogram
system.tol3bus.snoop_fanout::stdev           0.333866                       # Request fanout histogram
system.tol3bus.snoop_fanout::underflows             0      0.00%      0.00% # Request fanout histogram
system.tol3bus.snoop_fanout::0               29582251     87.22%     87.22% # Request fanout histogram
system.tol3bus.snoop_fanout::1                4334525     12.78%    100.00% # Request fanout histogram
system.tol3bus.snoop_fanout::overflows              0      0.00%    100.00% # Request fanout histogram
system.tol3bus.snoop_fanout::min_value              0                       # Request fanout histogram
system.tol3bus.snoop_fanout::max_value              1                       # Request fanout histogram
system.tol3bus.snoop_fanout::total           33916776                       # Request fanout histogram
system.tol3bus.reqLayer0.occupancy        13930568154                       # Layer occupancy (ticks)
system.tol3bus.reqLayer0.utilization              0.5                       # Layer utilization (%)
system.tol3bus.respLayer0.occupancy       12043702242                       # Layer occupancy (ticks)
system.tol3bus.respLayer0.utilization             0.4                       # Layer utilization (%)

---------- End Simulation Statistics   ----------
