
---------- Begin Simulation Statistics ----------
sim_seconds                                  1.494887                       # Number of seconds simulated
sim_ticks                                1494886938012                       # Number of ticks simulated
final_tick                               34798264862373                       # Number of ticks from beginning of simulation (restored from checkpoints and never reset)
sim_freq                                 1000000000000                       # Frequency of simulated ticks
host_inst_rate                                 602810                       # Simulator instruction rate (inst/s)
host_op_rate                                   602810                       # Simulator op (including micro ops) rate (op/s)
host_tick_rate                              750944382                       # Simulator tick rate (ticks/s)
host_mem_usage                                2574308                       # Number of bytes of host memory used
host_seconds                                  1990.68                       # Real time elapsed on the host
sim_insts                                  1200000009                       # Number of instructions simulated
sim_ops                                    1200000009                       # Number of ops (including micro ops) simulated
system.voltage_domain.voltage                       1                       # Voltage in Volts
system.clk_domain.clock                          1000                       # Clock period in ticks
system.mem_ctrls0.pwrStateResidencyTicks::UNDEFINED 34798264862373                       # Cumulative time (in ticks) in various power states
system.mem_ctrls0.bytes_read::cpu.inst            128                       # Number of bytes read from this memory
system.mem_ctrls0.bytes_read::cpu.data            192                       # Number of bytes read from this memory
system.mem_ctrls0.bytes_read::switch_cpus.inst         8064                       # Number of bytes read from this memory
system.mem_ctrls0.bytes_read::switch_cpus.data     87136192                       # Number of bytes read from this memory
system.mem_ctrls0.bytes_read::switch_cpus_1.inst           64                       # Number of bytes read from this memory
system.mem_ctrls0.bytes_read::switch_cpus_1.data     17846912                       # Number of bytes read from this memory
system.mem_ctrls0.bytes_read::total         104991552                       # Number of bytes read from this memory
system.mem_ctrls0.bytes_inst_read::cpu.inst          128                       # Number of instructions bytes read from this memory
system.mem_ctrls0.bytes_inst_read::switch_cpus.inst         8064                       # Number of instructions bytes read from this memory
system.mem_ctrls0.bytes_inst_read::switch_cpus_1.inst           64                       # Number of instructions bytes read from this memory
system.mem_ctrls0.bytes_inst_read::total         8256                       # Number of instructions bytes read from this memory
system.mem_ctrls0.bytes_written::writebacks     35084288                       # Number of bytes written to this memory
system.mem_ctrls0.bytes_written::total       35084288                       # Number of bytes written to this memory
system.mem_ctrls0.num_reads::cpu.inst               2                       # Number of read requests responded to by this memory
system.mem_ctrls0.num_reads::cpu.data               3                       # Number of read requests responded to by this memory
system.mem_ctrls0.num_reads::switch_cpus.inst          126                       # Number of read requests responded to by this memory
system.mem_ctrls0.num_reads::switch_cpus.data      1361503                       # Number of read requests responded to by this memory
system.mem_ctrls0.num_reads::switch_cpus_1.inst            1                       # Number of read requests responded to by this memory
system.mem_ctrls0.num_reads::switch_cpus_1.data       278858                       # Number of read requests responded to by this memory
system.mem_ctrls0.num_reads::total            1640493                       # Number of read requests responded to by this memory
system.mem_ctrls0.num_writes::writebacks       548192                       # Number of write requests responded to by this memory
system.mem_ctrls0.num_writes::total            548192                       # Number of write requests responded to by this memory
system.mem_ctrls0.bw_read::cpu.inst                86                       # Total read bandwidth from this memory (bytes/s)
system.mem_ctrls0.bw_read::cpu.data               128                       # Total read bandwidth from this memory (bytes/s)
system.mem_ctrls0.bw_read::switch_cpus.inst         5394                       # Total read bandwidth from this memory (bytes/s)
system.mem_ctrls0.bw_read::switch_cpus.data     58289487                       # Total read bandwidth from this memory (bytes/s)
system.mem_ctrls0.bw_read::switch_cpus_1.inst           43                       # Total read bandwidth from this memory (bytes/s)
system.mem_ctrls0.bw_read::switch_cpus_1.data     11938637                       # Total read bandwidth from this memory (bytes/s)
system.mem_ctrls0.bw_read::total             70233774                       # Total read bandwidth from this memory (bytes/s)
system.mem_ctrls0.bw_inst_read::cpu.inst           86                       # Instruction read bandwidth from this memory (bytes/s)
system.mem_ctrls0.bw_inst_read::switch_cpus.inst         5394                       # Instruction read bandwidth from this memory (bytes/s)
system.mem_ctrls0.bw_inst_read::switch_cpus_1.inst           43                       # Instruction read bandwidth from this memory (bytes/s)
system.mem_ctrls0.bw_inst_read::total            5523                       # Instruction read bandwidth from this memory (bytes/s)
system.mem_ctrls0.bw_write::writebacks       23469526                       # Write bandwidth from this memory (bytes/s)
system.mem_ctrls0.bw_write::total            23469526                       # Write bandwidth from this memory (bytes/s)
system.mem_ctrls0.bw_total::writebacks       23469526                       # Total bandwidth to/from this memory (bytes/s)
system.mem_ctrls0.bw_total::cpu.inst               86                       # Total bandwidth to/from this memory (bytes/s)
system.mem_ctrls0.bw_total::cpu.data              128                       # Total bandwidth to/from this memory (bytes/s)
system.mem_ctrls0.bw_total::switch_cpus.inst         5394                       # Total bandwidth to/from this memory (bytes/s)
system.mem_ctrls0.bw_total::switch_cpus.data     58289487                       # Total bandwidth to/from this memory (bytes/s)
system.mem_ctrls0.bw_total::switch_cpus_1.inst           43                       # Total bandwidth to/from this memory (bytes/s)
system.mem_ctrls0.bw_total::switch_cpus_1.data     11938637                       # Total bandwidth to/from this memory (bytes/s)
system.mem_ctrls0.bw_total::total            93703301                       # Total bandwidth to/from this memory (bytes/s)
system.mem_ctrls0.readReqs                    1640493                       # Number of read requests accepted
system.mem_ctrls0.writeReqs                    548192                       # Number of write requests accepted
system.mem_ctrls0.readBursts                  1640493                       # Number of DRAM read bursts, including those serviced by the write queue
system.mem_ctrls0.writeBursts                  548192                       # Number of DRAM write bursts, including those merged in the write queue
system.mem_ctrls0.bytesReadDRAM             104979008                       # Total number of bytes read from DRAM
system.mem_ctrls0.bytesReadWrQ                  12544                       # Total number of bytes read from write queue
system.mem_ctrls0.bytesWritten               35082560                       # Total number of bytes written to DRAM
system.mem_ctrls0.bytesReadSys              104991552                       # Total read bytes from the system interface side
system.mem_ctrls0.bytesWrittenSys            35084288                       # Total written bytes from the system interface side
system.mem_ctrls0.servicedByWrQ                   196                       # Number of DRAM read bursts serviced by the write queue
system.mem_ctrls0.mergedWrBursts                    0                       # Number of DRAM write bursts merged with an existing one
system.mem_ctrls0.neitherReadNorWriteReqs            0                       # Number of requests that are neither read nor write
system.mem_ctrls0.perBankRdBursts::0           106964                       # Per bank write bursts
system.mem_ctrls0.perBankRdBursts::1           104396                       # Per bank write bursts
system.mem_ctrls0.perBankRdBursts::2           104672                       # Per bank write bursts
system.mem_ctrls0.perBankRdBursts::3           101671                       # Per bank write bursts
system.mem_ctrls0.perBankRdBursts::4           101952                       # Per bank write bursts
system.mem_ctrls0.perBankRdBursts::5           101842                       # Per bank write bursts
system.mem_ctrls0.perBankRdBursts::6           102353                       # Per bank write bursts
system.mem_ctrls0.perBankRdBursts::7           103088                       # Per bank write bursts
system.mem_ctrls0.perBankRdBursts::8           102965                       # Per bank write bursts
system.mem_ctrls0.perBankRdBursts::9           101073                       # Per bank write bursts
system.mem_ctrls0.perBankRdBursts::10          101172                       # Per bank write bursts
system.mem_ctrls0.perBankRdBursts::11          100932                       # Per bank write bursts
system.mem_ctrls0.perBankRdBursts::12          100092                       # Per bank write bursts
system.mem_ctrls0.perBankRdBursts::13          100001                       # Per bank write bursts
system.mem_ctrls0.perBankRdBursts::14          101962                       # Per bank write bursts
system.mem_ctrls0.perBankRdBursts::15          105162                       # Per bank write bursts
system.mem_ctrls0.perBankWrBursts::0            36327                       # Per bank write bursts
system.mem_ctrls0.perBankWrBursts::1            35374                       # Per bank write bursts
system.mem_ctrls0.perBankWrBursts::2            34803                       # Per bank write bursts
system.mem_ctrls0.perBankWrBursts::3            33718                       # Per bank write bursts
system.mem_ctrls0.perBankWrBursts::4            33571                       # Per bank write bursts
system.mem_ctrls0.perBankWrBursts::5            33662                       # Per bank write bursts
system.mem_ctrls0.perBankWrBursts::6            33710                       # Per bank write bursts
system.mem_ctrls0.perBankWrBursts::7            34104                       # Per bank write bursts
system.mem_ctrls0.perBankWrBursts::8            33886                       # Per bank write bursts
system.mem_ctrls0.perBankWrBursts::9            33410                       # Per bank write bursts
system.mem_ctrls0.perBankWrBursts::10           34018                       # Per bank write bursts
system.mem_ctrls0.perBankWrBursts::11           33902                       # Per bank write bursts
system.mem_ctrls0.perBankWrBursts::12           33848                       # Per bank write bursts
system.mem_ctrls0.perBankWrBursts::13           33839                       # Per bank write bursts
system.mem_ctrls0.perBankWrBursts::14           34400                       # Per bank write bursts
system.mem_ctrls0.perBankWrBursts::15           35593                       # Per bank write bursts
system.mem_ctrls0.numRdRetry                        0                       # Number of times read queue was full causing retry
system.mem_ctrls0.numWrRetry                        0                       # Number of times write queue was full causing retry
system.mem_ctrls0.totGap                 1494886442508                       # Total gap between requests
system.mem_ctrls0.readPktSize::0                    0                       # Read request sizes (log2)
system.mem_ctrls0.readPktSize::1                    0                       # Read request sizes (log2)
system.mem_ctrls0.readPktSize::2                    0                       # Read request sizes (log2)
system.mem_ctrls0.readPktSize::3                    0                       # Read request sizes (log2)
system.mem_ctrls0.readPktSize::4                    0                       # Read request sizes (log2)
system.mem_ctrls0.readPktSize::5                    0                       # Read request sizes (log2)
system.mem_ctrls0.readPktSize::6              1640493                       # Read request sizes (log2)
system.mem_ctrls0.writePktSize::0                   0                       # Write request sizes (log2)
system.mem_ctrls0.writePktSize::1                   0                       # Write request sizes (log2)
system.mem_ctrls0.writePktSize::2                   0                       # Write request sizes (log2)
system.mem_ctrls0.writePktSize::3                   0                       # Write request sizes (log2)
system.mem_ctrls0.writePktSize::4                   0                       # Write request sizes (log2)
system.mem_ctrls0.writePktSize::5                   0                       # Write request sizes (log2)
system.mem_ctrls0.writePktSize::6              548192                       # Write request sizes (log2)
system.mem_ctrls0.rdQLenPdf::0                1534049                       # What read queue length does an incoming req see
system.mem_ctrls0.rdQLenPdf::1                  92769                       # What read queue length does an incoming req see
system.mem_ctrls0.rdQLenPdf::2                  12347                       # What read queue length does an incoming req see
system.mem_ctrls0.rdQLenPdf::3                   1132                       # What read queue length does an incoming req see
system.mem_ctrls0.rdQLenPdf::4                      0                       # What read queue length does an incoming req see
system.mem_ctrls0.rdQLenPdf::5                      0                       # What read queue length does an incoming req see
system.mem_ctrls0.rdQLenPdf::6                      0                       # What read queue length does an incoming req see
system.mem_ctrls0.rdQLenPdf::7                      0                       # What read queue length does an incoming req see
system.mem_ctrls0.rdQLenPdf::8                      0                       # What read queue length does an incoming req see
system.mem_ctrls0.rdQLenPdf::9                      0                       # What read queue length does an incoming req see
system.mem_ctrls0.rdQLenPdf::10                     0                       # What read queue length does an incoming req see
system.mem_ctrls0.rdQLenPdf::11                     0                       # What read queue length does an incoming req see
system.mem_ctrls0.rdQLenPdf::12                     0                       # What read queue length does an incoming req see
system.mem_ctrls0.rdQLenPdf::13                     0                       # What read queue length does an incoming req see
system.mem_ctrls0.rdQLenPdf::14                     0                       # What read queue length does an incoming req see
system.mem_ctrls0.rdQLenPdf::15                     0                       # What read queue length does an incoming req see
system.mem_ctrls0.rdQLenPdf::16                     0                       # What read queue length does an incoming req see
system.mem_ctrls0.rdQLenPdf::17                     0                       # What read queue length does an incoming req see
system.mem_ctrls0.rdQLenPdf::18                     0                       # What read queue length does an incoming req see
system.mem_ctrls0.rdQLenPdf::19                     0                       # What read queue length does an incoming req see
system.mem_ctrls0.rdQLenPdf::20                     0                       # What read queue length does an incoming req see
system.mem_ctrls0.rdQLenPdf::21                     0                       # What read queue length does an incoming req see
system.mem_ctrls0.rdQLenPdf::22                     0                       # What read queue length does an incoming req see
system.mem_ctrls0.rdQLenPdf::23                     0                       # What read queue length does an incoming req see
system.mem_ctrls0.rdQLenPdf::24                     0                       # What read queue length does an incoming req see
system.mem_ctrls0.rdQLenPdf::25                     0                       # What read queue length does an incoming req see
system.mem_ctrls0.rdQLenPdf::26                     0                       # What read queue length does an incoming req see
system.mem_ctrls0.rdQLenPdf::27                     0                       # What read queue length does an incoming req see
system.mem_ctrls0.rdQLenPdf::28                     0                       # What read queue length does an incoming req see
system.mem_ctrls0.rdQLenPdf::29                     0                       # What read queue length does an incoming req see
system.mem_ctrls0.rdQLenPdf::30                     0                       # What read queue length does an incoming req see
system.mem_ctrls0.rdQLenPdf::31                     0                       # What read queue length does an incoming req see
system.mem_ctrls0.wrQLenPdf::0                      2                       # What write queue length does an incoming req see
system.mem_ctrls0.wrQLenPdf::1                      2                       # What write queue length does an incoming req see
system.mem_ctrls0.wrQLenPdf::2                      2                       # What write queue length does an incoming req see
system.mem_ctrls0.wrQLenPdf::3                      2                       # What write queue length does an incoming req see
system.mem_ctrls0.wrQLenPdf::4                      2                       # What write queue length does an incoming req see
system.mem_ctrls0.wrQLenPdf::5                      2                       # What write queue length does an incoming req see
system.mem_ctrls0.wrQLenPdf::6                      2                       # What write queue length does an incoming req see
system.mem_ctrls0.wrQLenPdf::7                      2                       # What write queue length does an incoming req see
system.mem_ctrls0.wrQLenPdf::8                      2                       # What write queue length does an incoming req see
system.mem_ctrls0.wrQLenPdf::9                      2                       # What write queue length does an incoming req see
system.mem_ctrls0.wrQLenPdf::10                     2                       # What write queue length does an incoming req see
system.mem_ctrls0.wrQLenPdf::11                     2                       # What write queue length does an incoming req see
system.mem_ctrls0.wrQLenPdf::12                     2                       # What write queue length does an incoming req see
system.mem_ctrls0.wrQLenPdf::13                     2                       # What write queue length does an incoming req see
system.mem_ctrls0.wrQLenPdf::14                     2                       # What write queue length does an incoming req see
system.mem_ctrls0.wrQLenPdf::15                 17490                       # What write queue length does an incoming req see
system.mem_ctrls0.wrQLenPdf::16                 18107                       # What write queue length does an incoming req see
system.mem_ctrls0.wrQLenPdf::17                 30410                       # What write queue length does an incoming req see
system.mem_ctrls0.wrQLenPdf::18                 31881                       # What write queue length does an incoming req see
system.mem_ctrls0.wrQLenPdf::19                 32095                       # What write queue length does an incoming req see
system.mem_ctrls0.wrQLenPdf::20                 32095                       # What write queue length does an incoming req see
system.mem_ctrls0.wrQLenPdf::21                 32124                       # What write queue length does an incoming req see
system.mem_ctrls0.wrQLenPdf::22                 32131                       # What write queue length does an incoming req see
system.mem_ctrls0.wrQLenPdf::23                 32149                       # What write queue length does an incoming req see
system.mem_ctrls0.wrQLenPdf::24                 32128                       # What write queue length does an incoming req see
system.mem_ctrls0.wrQLenPdf::25                 32156                       # What write queue length does an incoming req see
system.mem_ctrls0.wrQLenPdf::26                 32104                       # What write queue length does an incoming req see
system.mem_ctrls0.wrQLenPdf::27                 32158                       # What write queue length does an incoming req see
system.mem_ctrls0.wrQLenPdf::28                 32514                       # What write queue length does an incoming req see
system.mem_ctrls0.wrQLenPdf::29                 32370                       # What write queue length does an incoming req see
system.mem_ctrls0.wrQLenPdf::30                 32192                       # What write queue length does an incoming req see
system.mem_ctrls0.wrQLenPdf::31                 32008                       # What write queue length does an incoming req see
system.mem_ctrls0.wrQLenPdf::32                 31966                       # What write queue length does an incoming req see
system.mem_ctrls0.wrQLenPdf::33                    77                       # What write queue length does an incoming req see
system.mem_ctrls0.wrQLenPdf::34                     7                       # What write queue length does an incoming req see
system.mem_ctrls0.wrQLenPdf::35                     0                       # What write queue length does an incoming req see
system.mem_ctrls0.wrQLenPdf::36                     0                       # What write queue length does an incoming req see
system.mem_ctrls0.wrQLenPdf::37                     0                       # What write queue length does an incoming req see
system.mem_ctrls0.wrQLenPdf::38                     0                       # What write queue length does an incoming req see
system.mem_ctrls0.wrQLenPdf::39                     0                       # What write queue length does an incoming req see
system.mem_ctrls0.wrQLenPdf::40                     0                       # What write queue length does an incoming req see
system.mem_ctrls0.wrQLenPdf::41                     0                       # What write queue length does an incoming req see
system.mem_ctrls0.wrQLenPdf::42                     0                       # What write queue length does an incoming req see
system.mem_ctrls0.wrQLenPdf::43                     0                       # What write queue length does an incoming req see
system.mem_ctrls0.wrQLenPdf::44                     0                       # What write queue length does an incoming req see
system.mem_ctrls0.wrQLenPdf::45                     0                       # What write queue length does an incoming req see
system.mem_ctrls0.wrQLenPdf::46                     0                       # What write queue length does an incoming req see
system.mem_ctrls0.wrQLenPdf::47                     0                       # What write queue length does an incoming req see
system.mem_ctrls0.wrQLenPdf::48                     0                       # What write queue length does an incoming req see
system.mem_ctrls0.wrQLenPdf::49                     0                       # What write queue length does an incoming req see
system.mem_ctrls0.wrQLenPdf::50                     0                       # What write queue length does an incoming req see
system.mem_ctrls0.wrQLenPdf::51                     0                       # What write queue length does an incoming req see
system.mem_ctrls0.wrQLenPdf::52                     0                       # What write queue length does an incoming req see
system.mem_ctrls0.wrQLenPdf::53                     0                       # What write queue length does an incoming req see
system.mem_ctrls0.wrQLenPdf::54                     0                       # What write queue length does an incoming req see
system.mem_ctrls0.wrQLenPdf::55                     0                       # What write queue length does an incoming req see
system.mem_ctrls0.wrQLenPdf::56                     0                       # What write queue length does an incoming req see
system.mem_ctrls0.wrQLenPdf::57                     0                       # What write queue length does an incoming req see
system.mem_ctrls0.wrQLenPdf::58                     0                       # What write queue length does an incoming req see
system.mem_ctrls0.wrQLenPdf::59                     0                       # What write queue length does an incoming req see
system.mem_ctrls0.wrQLenPdf::60                     0                       # What write queue length does an incoming req see
system.mem_ctrls0.wrQLenPdf::61                     0                       # What write queue length does an incoming req see
system.mem_ctrls0.wrQLenPdf::62                     0                       # What write queue length does an incoming req see
system.mem_ctrls0.wrQLenPdf::63                     0                       # What write queue length does an incoming req see
system.mem_ctrls0.bytesPerActivate::samples      1938472                       # Bytes accessed per row activation
system.mem_ctrls0.bytesPerActivate::mean    72.253329                       # Bytes accessed per row activation
system.mem_ctrls0.bytesPerActivate::gmean    68.395869                       # Bytes accessed per row activation
system.mem_ctrls0.bytesPerActivate::stdev    38.813094                       # Bytes accessed per row activation
system.mem_ctrls0.bytesPerActivate::0-127      1805551     93.14%     93.14% # Bytes accessed per row activation
system.mem_ctrls0.bytesPerActivate::128-255       102543      5.29%     98.43% # Bytes accessed per row activation
system.mem_ctrls0.bytesPerActivate::256-383        21501      1.11%     99.54% # Bytes accessed per row activation
system.mem_ctrls0.bytesPerActivate::384-511         6794      0.35%     99.89% # Bytes accessed per row activation
system.mem_ctrls0.bytesPerActivate::512-639         1697      0.09%     99.98% # Bytes accessed per row activation
system.mem_ctrls0.bytesPerActivate::640-767          288      0.01%     99.99% # Bytes accessed per row activation
system.mem_ctrls0.bytesPerActivate::768-895           76      0.00%    100.00% # Bytes accessed per row activation
system.mem_ctrls0.bytesPerActivate::896-1023           13      0.00%    100.00% # Bytes accessed per row activation
system.mem_ctrls0.bytesPerActivate::1024-1151            9      0.00%    100.00% # Bytes accessed per row activation
system.mem_ctrls0.bytesPerActivate::total      1938472                       # Bytes accessed per row activation
system.mem_ctrls0.rdPerTurnAround::samples        31943                       # Reads before turning the bus around for writes
system.mem_ctrls0.rdPerTurnAround::mean     51.350186                       # Reads before turning the bus around for writes
system.mem_ctrls0.rdPerTurnAround::gmean    48.655653                       # Reads before turning the bus around for writes
system.mem_ctrls0.rdPerTurnAround::stdev   115.814411                       # Reads before turning the bus around for writes
system.mem_ctrls0.rdPerTurnAround::0-1023        31939     99.99%     99.99% # Reads before turning the bus around for writes
system.mem_ctrls0.rdPerTurnAround::1024-2047            2      0.01%     99.99% # Reads before turning the bus around for writes
system.mem_ctrls0.rdPerTurnAround::2048-3071            1      0.00%    100.00% # Reads before turning the bus around for writes
system.mem_ctrls0.rdPerTurnAround::19456-20479            1      0.00%    100.00% # Reads before turning the bus around for writes
system.mem_ctrls0.rdPerTurnAround::total        31943                       # Reads before turning the bus around for writes
system.mem_ctrls0.wrPerTurnAround::samples        31943                       # Writes before turning the bus around for reads
system.mem_ctrls0.wrPerTurnAround::mean     17.160724                       # Writes before turning the bus around for reads
system.mem_ctrls0.wrPerTurnAround::gmean    17.128624                       # Writes before turning the bus around for reads
system.mem_ctrls0.wrPerTurnAround::stdev     1.047594                       # Writes before turning the bus around for reads
system.mem_ctrls0.wrPerTurnAround::15               1      0.00%      0.00% # Writes before turning the bus around for reads
system.mem_ctrls0.wrPerTurnAround::16           13846     43.35%     43.35% # Writes before turning the bus around for reads
system.mem_ctrls0.wrPerTurnAround::17             529      1.66%     45.01% # Writes before turning the bus around for reads
system.mem_ctrls0.wrPerTurnAround::18           16249     50.87%     95.87% # Writes before turning the bus around for reads
system.mem_ctrls0.wrPerTurnAround::19            1231      3.85%     99.73% # Writes before turning the bus around for reads
system.mem_ctrls0.wrPerTurnAround::20              79      0.25%     99.97% # Writes before turning the bus around for reads
system.mem_ctrls0.wrPerTurnAround::21               6      0.02%     99.99% # Writes before turning the bus around for reads
system.mem_ctrls0.wrPerTurnAround::22               2      0.01%    100.00% # Writes before turning the bus around for reads
system.mem_ctrls0.wrPerTurnAround::total        31943                       # Writes before turning the bus around for reads
system.mem_ctrls0.totQLat                 86747949427                       # Total ticks spent queuing
system.mem_ctrls0.totMemAccLat           117503518177                       # Total ticks spent from burst creation until serviced by the DRAM
system.mem_ctrls0.totBusLat                8201485000                       # Total ticks spent in databus transfers
system.mem_ctrls0.avgQLat                    52885.51                       # Average queueing delay per DRAM burst
system.mem_ctrls0.avgBusLat                   5000.00                       # Average bus latency per DRAM burst
system.mem_ctrls0.avgMemAccLat               71635.51                       # Average memory access latency per DRAM burst
system.mem_ctrls0.avgRdBW                       70.23                       # Average DRAM read bandwidth in MiByte/s
system.mem_ctrls0.avgWrBW                       23.47                       # Average achieved write bandwidth in MiByte/s
system.mem_ctrls0.avgRdBWSys                    70.23                       # Average system read bandwidth in MiByte/s
system.mem_ctrls0.avgWrBWSys                    23.47                       # Average system write bandwidth in MiByte/s
system.mem_ctrls0.peakBW                     12800.00                       # Theoretical peak bandwidth in MiByte/s
system.mem_ctrls0.busUtil                        0.73                       # Data bus utilization in percentage
system.mem_ctrls0.busUtilRead                    0.55                       # Data bus utilization in percentage for reads
system.mem_ctrls0.busUtilWrite                   0.18                       # Data bus utilization in percentage for writes
system.mem_ctrls0.avgRdQLen                      1.01                       # Average read queue length when enqueuing
system.mem_ctrls0.avgWrQLen                     24.41                       # Average write queue length when enqueuing
system.mem_ctrls0.readRowHits                   36242                       # Number of row buffer hits during reads
system.mem_ctrls0.writeRowHits                 213740                       # Number of row buffer hits during writes
system.mem_ctrls0.readRowHitRate                 2.21                       # Row buffer hit rate for reads
system.mem_ctrls0.writeRowHitRate               38.99                       # Row buffer hit rate for writes
system.mem_ctrls0.avgGap                    683006.66                       # Average gap between requests
system.mem_ctrls0.pageHitRate                   11.42                       # Row buffer hit rate, read and write combined
system.mem_ctrls0_0.actEnergy              6971745900                       # Energy for activate commands per rank (pJ)
system.mem_ctrls0_0.preEnergy              3705555645                       # Energy for precharge commands per rank (pJ)
system.mem_ctrls0_0.readEnergy             5904337320                       # Energy for read commands per rank (pJ)
system.mem_ctrls0_0.writeEnergy            1436904180                       # Energy for write commands per rank (pJ)
system.mem_ctrls0_0.refreshEnergy        120572699520.000031                       # Energy for refresh commands per rank (pJ)
system.mem_ctrls0_0.actBackEnergy         62644173060                       # Energy for active background per rank (pJ)
system.mem_ctrls0_0.preBackEnergy          6161643360                       # Energy for precharge background per rank (pJ)
system.mem_ctrls0_0.actPowerDownEnergy   332165763780                       # Energy for active power-down per rank (pJ)
system.mem_ctrls0_0.prePowerDownEnergy   163713622560                       # Energy for precharge power-down per rank (pJ)
system.mem_ctrls0_0.selfRefreshEnergy     61514930025                       # Energy for self refresh per rank (pJ)
system.mem_ctrls0_0.totalEnergy          764832583110                       # Total energy per rank (pJ)
system.mem_ctrls0_0.averagePower           511.632387                       # Core power per rank (mW)
system.mem_ctrls0_0.totalIdleTime        1341374058817                       # Total Idle time Per DRAM Rank
system.mem_ctrls0_0.memoryStateTime::IDLE   8813990651                       # Time in different power states
system.mem_ctrls0_0.memoryStateTime::REF  51189224000                       # Time in different power states
system.mem_ctrls0_0.memoryStateTime::SREF 186600439433                       # Time in different power states
system.mem_ctrls0_0.memoryStateTime::PRE_PDN 426338038588                       # Time in different power states
system.mem_ctrls0_0.memoryStateTime::ACT  93509222525                       # Time in different power states
system.mem_ctrls0_0.memoryStateTime::ACT_PDN 728436022815                       # Time in different power states
system.mem_ctrls0_1.actEnergy              6869001300                       # Energy for activate commands per rank (pJ)
system.mem_ctrls0_1.preEnergy              3650945595                       # Energy for precharge commands per rank (pJ)
system.mem_ctrls0_1.readEnergy             5807383260                       # Energy for read commands per rank (pJ)
system.mem_ctrls0_1.writeEnergy            1424517120                       # Energy for write commands per rank (pJ)
system.mem_ctrls0_1.refreshEnergy        121353906960.000031                       # Energy for refresh commands per rank (pJ)
system.mem_ctrls0_1.actBackEnergy         61943554710                       # Energy for active background per rank (pJ)
system.mem_ctrls0_1.preBackEnergy          5816631840                       # Energy for precharge background per rank (pJ)
system.mem_ctrls0_1.actPowerDownEnergy   336111270720                       # Energy for active power-down per rank (pJ)
system.mem_ctrls0_1.prePowerDownEnergy   170831856480                       # Energy for precharge power-down per rank (pJ)
system.mem_ctrls0_1.selfRefreshEnergy     54445461135                       # Energy for self refresh per rank (pJ)
system.mem_ctrls0_1.totalEnergy          768313650330                       # Total energy per rank (pJ)
system.mem_ctrls0_1.averagePower           513.961034                       # Core power per rank (mW)
system.mem_ctrls0_1.totalIdleTime        1343767893159                       # Total Idle time Per DRAM Rank
system.mem_ctrls0_1.memoryStateTime::IDLE   8306081095                       # Time in different power states
system.mem_ctrls0_1.memoryStateTime::REF  51508578000                       # Time in different power states
system.mem_ctrls0_1.memoryStateTime::SREF 161806067257                       # Time in different power states
system.mem_ctrls0_1.memoryStateTime::PRE_PDN 444874631673                       # Time in different power states
system.mem_ctrls0_1.memoryStateTime::ACT  91303534579                       # Time in different power states
system.mem_ctrls0_1.memoryStateTime::ACT_PDN 737088045408                       # Time in different power states
system.mem_ctrls1.pwrStateResidencyTicks::UNDEFINED 34798264862373                       # Cumulative time (in ticks) in various power states
system.mem_ctrls1.bytes_read::cpu.inst             64                       # Number of bytes read from this memory
system.mem_ctrls1.bytes_read::cpu.data            192                       # Number of bytes read from this memory
system.mem_ctrls1.bytes_read::switch_cpus.inst         8128                       # Number of bytes read from this memory
system.mem_ctrls1.bytes_read::switch_cpus.data     87080064                       # Number of bytes read from this memory
system.mem_ctrls1.bytes_read::switch_cpus_1.data     17828800                       # Number of bytes read from this memory
system.mem_ctrls1.bytes_read::total         104917248                       # Number of bytes read from this memory
system.mem_ctrls1.bytes_inst_read::cpu.inst           64                       # Number of instructions bytes read from this memory
system.mem_ctrls1.bytes_inst_read::switch_cpus.inst         8128                       # Number of instructions bytes read from this memory
system.mem_ctrls1.bytes_inst_read::total         8192                       # Number of instructions bytes read from this memory
system.mem_ctrls1.bytes_written::writebacks     35071872                       # Number of bytes written to this memory
system.mem_ctrls1.bytes_written::total       35071872                       # Number of bytes written to this memory
system.mem_ctrls1.num_reads::cpu.inst               1                       # Number of read requests responded to by this memory
system.mem_ctrls1.num_reads::cpu.data               3                       # Number of read requests responded to by this memory
system.mem_ctrls1.num_reads::switch_cpus.inst          127                       # Number of read requests responded to by this memory
system.mem_ctrls1.num_reads::switch_cpus.data      1360626                       # Number of read requests responded to by this memory
system.mem_ctrls1.num_reads::switch_cpus_1.data       278575                       # Number of read requests responded to by this memory
system.mem_ctrls1.num_reads::total            1639332                       # Number of read requests responded to by this memory
system.mem_ctrls1.num_writes::writebacks       547998                       # Number of write requests responded to by this memory
system.mem_ctrls1.num_writes::total            547998                       # Number of write requests responded to by this memory
system.mem_ctrls1.bw_read::cpu.inst                43                       # Total read bandwidth from this memory (bytes/s)
system.mem_ctrls1.bw_read::cpu.data               128                       # Total read bandwidth from this memory (bytes/s)
system.mem_ctrls1.bw_read::switch_cpus.inst         5437                       # Total read bandwidth from this memory (bytes/s)
system.mem_ctrls1.bw_read::switch_cpus.data     58251940                       # Total read bandwidth from this memory (bytes/s)
system.mem_ctrls1.bw_read::switch_cpus_1.data     11926521                       # Total read bandwidth from this memory (bytes/s)
system.mem_ctrls1.bw_read::total             70184069                       # Total read bandwidth from this memory (bytes/s)
system.mem_ctrls1.bw_inst_read::cpu.inst           43                       # Instruction read bandwidth from this memory (bytes/s)
system.mem_ctrls1.bw_inst_read::switch_cpus.inst         5437                       # Instruction read bandwidth from this memory (bytes/s)
system.mem_ctrls1.bw_inst_read::total            5480                       # Instruction read bandwidth from this memory (bytes/s)
system.mem_ctrls1.bw_write::writebacks       23461220                       # Write bandwidth from this memory (bytes/s)
system.mem_ctrls1.bw_write::total            23461220                       # Write bandwidth from this memory (bytes/s)
system.mem_ctrls1.bw_total::writebacks       23461220                       # Total bandwidth to/from this memory (bytes/s)
system.mem_ctrls1.bw_total::cpu.inst               43                       # Total bandwidth to/from this memory (bytes/s)
system.mem_ctrls1.bw_total::cpu.data              128                       # Total bandwidth to/from this memory (bytes/s)
system.mem_ctrls1.bw_total::switch_cpus.inst         5437                       # Total bandwidth to/from this memory (bytes/s)
system.mem_ctrls1.bw_total::switch_cpus.data     58251940                       # Total bandwidth to/from this memory (bytes/s)
system.mem_ctrls1.bw_total::switch_cpus_1.data     11926521                       # Total bandwidth to/from this memory (bytes/s)
system.mem_ctrls1.bw_total::total            93645289                       # Total bandwidth to/from this memory (bytes/s)
system.mem_ctrls1.readReqs                    1639332                       # Number of read requests accepted
system.mem_ctrls1.writeReqs                    547998                       # Number of write requests accepted
system.mem_ctrls1.readBursts                  1639332                       # Number of DRAM read bursts, including those serviced by the write queue
system.mem_ctrls1.writeBursts                  547998                       # Number of DRAM write bursts, including those merged in the write queue
system.mem_ctrls1.bytesReadDRAM             104901248                       # Total number of bytes read from DRAM
system.mem_ctrls1.bytesReadWrQ                  16000                       # Total number of bytes read from write queue
system.mem_ctrls1.bytesWritten               35070784                       # Total number of bytes written to DRAM
system.mem_ctrls1.bytesReadSys              104917248                       # Total read bytes from the system interface side
system.mem_ctrls1.bytesWrittenSys            35071872                       # Total written bytes from the system interface side
system.mem_ctrls1.servicedByWrQ                   250                       # Number of DRAM read bursts serviced by the write queue
system.mem_ctrls1.mergedWrBursts                    0                       # Number of DRAM write bursts merged with an existing one
system.mem_ctrls1.neitherReadNorWriteReqs            0                       # Number of requests that are neither read nor write
system.mem_ctrls1.perBankRdBursts::0           107069                       # Per bank write bursts
system.mem_ctrls1.perBankRdBursts::1           104592                       # Per bank write bursts
system.mem_ctrls1.perBankRdBursts::2           104626                       # Per bank write bursts
system.mem_ctrls1.perBankRdBursts::3           101520                       # Per bank write bursts
system.mem_ctrls1.perBankRdBursts::4           101404                       # Per bank write bursts
system.mem_ctrls1.perBankRdBursts::5           101724                       # Per bank write bursts
system.mem_ctrls1.perBankRdBursts::6           102410                       # Per bank write bursts
system.mem_ctrls1.perBankRdBursts::7           102964                       # Per bank write bursts
system.mem_ctrls1.perBankRdBursts::8           102850                       # Per bank write bursts
system.mem_ctrls1.perBankRdBursts::9           101250                       # Per bank write bursts
system.mem_ctrls1.perBankRdBursts::10          101158                       # Per bank write bursts
system.mem_ctrls1.perBankRdBursts::11          100672                       # Per bank write bursts
system.mem_ctrls1.perBankRdBursts::12           99856                       # Per bank write bursts
system.mem_ctrls1.perBankRdBursts::13           99855                       # Per bank write bursts
system.mem_ctrls1.perBankRdBursts::14          101917                       # Per bank write bursts
system.mem_ctrls1.perBankRdBursts::15          105215                       # Per bank write bursts
system.mem_ctrls1.perBankWrBursts::0            36375                       # Per bank write bursts
system.mem_ctrls1.perBankWrBursts::1            35397                       # Per bank write bursts
system.mem_ctrls1.perBankWrBursts::2            34780                       # Per bank write bursts
system.mem_ctrls1.perBankWrBursts::3            33627                       # Per bank write bursts
system.mem_ctrls1.perBankWrBursts::4            33503                       # Per bank write bursts
system.mem_ctrls1.perBankWrBursts::5            33675                       # Per bank write bursts
system.mem_ctrls1.perBankWrBursts::6            33714                       # Per bank write bursts
system.mem_ctrls1.perBankWrBursts::7            34053                       # Per bank write bursts
system.mem_ctrls1.perBankWrBursts::8            33844                       # Per bank write bursts
system.mem_ctrls1.perBankWrBursts::9            33423                       # Per bank write bursts
system.mem_ctrls1.perBankWrBursts::10           34059                       # Per bank write bursts
system.mem_ctrls1.perBankWrBursts::11           33848                       # Per bank write bursts
system.mem_ctrls1.perBankWrBursts::12           33812                       # Per bank write bursts
system.mem_ctrls1.perBankWrBursts::13           33819                       # Per bank write bursts
system.mem_ctrls1.perBankWrBursts::14           34463                       # Per bank write bursts
system.mem_ctrls1.perBankWrBursts::15           35589                       # Per bank write bursts
system.mem_ctrls1.numRdRetry                        0                       # Number of times read queue was full causing retry
system.mem_ctrls1.numWrRetry                        0                       # Number of times write queue was full causing retry
system.mem_ctrls1.totGap                 1494886379571                       # Total gap between requests
system.mem_ctrls1.readPktSize::0                    0                       # Read request sizes (log2)
system.mem_ctrls1.readPktSize::1                    0                       # Read request sizes (log2)
system.mem_ctrls1.readPktSize::2                    0                       # Read request sizes (log2)
system.mem_ctrls1.readPktSize::3                    0                       # Read request sizes (log2)
system.mem_ctrls1.readPktSize::4                    0                       # Read request sizes (log2)
system.mem_ctrls1.readPktSize::5                    0                       # Read request sizes (log2)
system.mem_ctrls1.readPktSize::6              1639332                       # Read request sizes (log2)
system.mem_ctrls1.writePktSize::0                   0                       # Write request sizes (log2)
system.mem_ctrls1.writePktSize::1                   0                       # Write request sizes (log2)
system.mem_ctrls1.writePktSize::2                   0                       # Write request sizes (log2)
system.mem_ctrls1.writePktSize::3                   0                       # Write request sizes (log2)
system.mem_ctrls1.writePktSize::4                   0                       # Write request sizes (log2)
system.mem_ctrls1.writePktSize::5                   0                       # Write request sizes (log2)
system.mem_ctrls1.writePktSize::6              547998                       # Write request sizes (log2)
system.mem_ctrls1.rdQLenPdf::0                1534267                       # What read queue length does an incoming req see
system.mem_ctrls1.rdQLenPdf::1                  92196                       # What read queue length does an incoming req see
system.mem_ctrls1.rdQLenPdf::2                  11673                       # What read queue length does an incoming req see
system.mem_ctrls1.rdQLenPdf::3                    946                       # What read queue length does an incoming req see
system.mem_ctrls1.rdQLenPdf::4                      0                       # What read queue length does an incoming req see
system.mem_ctrls1.rdQLenPdf::5                      0                       # What read queue length does an incoming req see
system.mem_ctrls1.rdQLenPdf::6                      0                       # What read queue length does an incoming req see
system.mem_ctrls1.rdQLenPdf::7                      0                       # What read queue length does an incoming req see
system.mem_ctrls1.rdQLenPdf::8                      0                       # What read queue length does an incoming req see
system.mem_ctrls1.rdQLenPdf::9                      0                       # What read queue length does an incoming req see
system.mem_ctrls1.rdQLenPdf::10                     0                       # What read queue length does an incoming req see
system.mem_ctrls1.rdQLenPdf::11                     0                       # What read queue length does an incoming req see
system.mem_ctrls1.rdQLenPdf::12                     0                       # What read queue length does an incoming req see
system.mem_ctrls1.rdQLenPdf::13                     0                       # What read queue length does an incoming req see
system.mem_ctrls1.rdQLenPdf::14                     0                       # What read queue length does an incoming req see
system.mem_ctrls1.rdQLenPdf::15                     0                       # What read queue length does an incoming req see
system.mem_ctrls1.rdQLenPdf::16                     0                       # What read queue length does an incoming req see
system.mem_ctrls1.rdQLenPdf::17                     0                       # What read queue length does an incoming req see
system.mem_ctrls1.rdQLenPdf::18                     0                       # What read queue length does an incoming req see
system.mem_ctrls1.rdQLenPdf::19                     0                       # What read queue length does an incoming req see
system.mem_ctrls1.rdQLenPdf::20                     0                       # What read queue length does an incoming req see
system.mem_ctrls1.rdQLenPdf::21                     0                       # What read queue length does an incoming req see
system.mem_ctrls1.rdQLenPdf::22                     0                       # What read queue length does an incoming req see
system.mem_ctrls1.rdQLenPdf::23                     0                       # What read queue length does an incoming req see
system.mem_ctrls1.rdQLenPdf::24                     0                       # What read queue length does an incoming req see
system.mem_ctrls1.rdQLenPdf::25                     0                       # What read queue length does an incoming req see
system.mem_ctrls1.rdQLenPdf::26                     0                       # What read queue length does an incoming req see
system.mem_ctrls1.rdQLenPdf::27                     0                       # What read queue length does an incoming req see
system.mem_ctrls1.rdQLenPdf::28                     0                       # What read queue length does an incoming req see
system.mem_ctrls1.rdQLenPdf::29                     0                       # What read queue length does an incoming req see
system.mem_ctrls1.rdQLenPdf::30                     0                       # What read queue length does an incoming req see
system.mem_ctrls1.rdQLenPdf::31                     0                       # What read queue length does an incoming req see
system.mem_ctrls1.wrQLenPdf::0                      2                       # What write queue length does an incoming req see
system.mem_ctrls1.wrQLenPdf::1                      2                       # What write queue length does an incoming req see
system.mem_ctrls1.wrQLenPdf::2                      2                       # What write queue length does an incoming req see
system.mem_ctrls1.wrQLenPdf::3                      2                       # What write queue length does an incoming req see
system.mem_ctrls1.wrQLenPdf::4                      2                       # What write queue length does an incoming req see
system.mem_ctrls1.wrQLenPdf::5                      2                       # What write queue length does an incoming req see
system.mem_ctrls1.wrQLenPdf::6                      2                       # What write queue length does an incoming req see
system.mem_ctrls1.wrQLenPdf::7                      2                       # What write queue length does an incoming req see
system.mem_ctrls1.wrQLenPdf::8                      2                       # What write queue length does an incoming req see
system.mem_ctrls1.wrQLenPdf::9                      2                       # What write queue length does an incoming req see
system.mem_ctrls1.wrQLenPdf::10                     2                       # What write queue length does an incoming req see
system.mem_ctrls1.wrQLenPdf::11                     2                       # What write queue length does an incoming req see
system.mem_ctrls1.wrQLenPdf::12                     2                       # What write queue length does an incoming req see
system.mem_ctrls1.wrQLenPdf::13                     2                       # What write queue length does an incoming req see
system.mem_ctrls1.wrQLenPdf::14                     2                       # What write queue length does an incoming req see
system.mem_ctrls1.wrQLenPdf::15                 17401                       # What write queue length does an incoming req see
system.mem_ctrls1.wrQLenPdf::16                 18083                       # What write queue length does an incoming req see
system.mem_ctrls1.wrQLenPdf::17                 30461                       # What write queue length does an incoming req see
system.mem_ctrls1.wrQLenPdf::18                 31876                       # What write queue length does an incoming req see
system.mem_ctrls1.wrQLenPdf::19                 32102                       # What write queue length does an incoming req see
system.mem_ctrls1.wrQLenPdf::20                 32102                       # What write queue length does an incoming req see
system.mem_ctrls1.wrQLenPdf::21                 32092                       # What write queue length does an incoming req see
system.mem_ctrls1.wrQLenPdf::22                 32138                       # What write queue length does an incoming req see
system.mem_ctrls1.wrQLenPdf::23                 32133                       # What write queue length does an incoming req see
system.mem_ctrls1.wrQLenPdf::24                 32128                       # What write queue length does an incoming req see
system.mem_ctrls1.wrQLenPdf::25                 32116                       # What write queue length does an incoming req see
system.mem_ctrls1.wrQLenPdf::26                 32073                       # What write queue length does an incoming req see
system.mem_ctrls1.wrQLenPdf::27                 32163                       # What write queue length does an incoming req see
system.mem_ctrls1.wrQLenPdf::28                 32494                       # What write queue length does an incoming req see
system.mem_ctrls1.wrQLenPdf::29                 32373                       # What write queue length does an incoming req see
system.mem_ctrls1.wrQLenPdf::30                 32161                       # What write queue length does an incoming req see
system.mem_ctrls1.wrQLenPdf::31                 31991                       # What write queue length does an incoming req see
system.mem_ctrls1.wrQLenPdf::32                 31950                       # What write queue length does an incoming req see
system.mem_ctrls1.wrQLenPdf::33                   113                       # What write queue length does an incoming req see
system.mem_ctrls1.wrQLenPdf::34                    17                       # What write queue length does an incoming req see
system.mem_ctrls1.wrQLenPdf::35                     1                       # What write queue length does an incoming req see
system.mem_ctrls1.wrQLenPdf::36                     0                       # What write queue length does an incoming req see
system.mem_ctrls1.wrQLenPdf::37                     0                       # What write queue length does an incoming req see
system.mem_ctrls1.wrQLenPdf::38                     0                       # What write queue length does an incoming req see
system.mem_ctrls1.wrQLenPdf::39                     0                       # What write queue length does an incoming req see
system.mem_ctrls1.wrQLenPdf::40                     0                       # What write queue length does an incoming req see
system.mem_ctrls1.wrQLenPdf::41                     0                       # What write queue length does an incoming req see
system.mem_ctrls1.wrQLenPdf::42                     0                       # What write queue length does an incoming req see
system.mem_ctrls1.wrQLenPdf::43                     0                       # What write queue length does an incoming req see
system.mem_ctrls1.wrQLenPdf::44                     0                       # What write queue length does an incoming req see
system.mem_ctrls1.wrQLenPdf::45                     0                       # What write queue length does an incoming req see
system.mem_ctrls1.wrQLenPdf::46                     0                       # What write queue length does an incoming req see
system.mem_ctrls1.wrQLenPdf::47                     0                       # What write queue length does an incoming req see
system.mem_ctrls1.wrQLenPdf::48                     0                       # What write queue length does an incoming req see
system.mem_ctrls1.wrQLenPdf::49                     0                       # What write queue length does an incoming req see
system.mem_ctrls1.wrQLenPdf::50                     0                       # What write queue length does an incoming req see
system.mem_ctrls1.wrQLenPdf::51                     0                       # What write queue length does an incoming req see
system.mem_ctrls1.wrQLenPdf::52                     0                       # What write queue length does an incoming req see
system.mem_ctrls1.wrQLenPdf::53                     0                       # What write queue length does an incoming req see
system.mem_ctrls1.wrQLenPdf::54                     0                       # What write queue length does an incoming req see
system.mem_ctrls1.wrQLenPdf::55                     0                       # What write queue length does an incoming req see
system.mem_ctrls1.wrQLenPdf::56                     0                       # What write queue length does an incoming req see
system.mem_ctrls1.wrQLenPdf::57                     0                       # What write queue length does an incoming req see
system.mem_ctrls1.wrQLenPdf::58                     0                       # What write queue length does an incoming req see
system.mem_ctrls1.wrQLenPdf::59                     0                       # What write queue length does an incoming req see
system.mem_ctrls1.wrQLenPdf::60                     0                       # What write queue length does an incoming req see
system.mem_ctrls1.wrQLenPdf::61                     0                       # What write queue length does an incoming req see
system.mem_ctrls1.wrQLenPdf::62                     0                       # What write queue length does an incoming req see
system.mem_ctrls1.wrQLenPdf::63                     0                       # What write queue length does an incoming req see
system.mem_ctrls1.bytesPerActivate::samples      1938398                       # Bytes accessed per row activation
system.mem_ctrls1.bytesPerActivate::mean    72.210161                       # Bytes accessed per row activation
system.mem_ctrls1.bytesPerActivate::gmean    68.372929                       # Bytes accessed per row activation
system.mem_ctrls1.bytesPerActivate::stdev    38.671769                       # Bytes accessed per row activation
system.mem_ctrls1.bytesPerActivate::0-127      1806232     93.18%     93.18% # Bytes accessed per row activation
system.mem_ctrls1.bytesPerActivate::128-255       101987      5.26%     98.44% # Bytes accessed per row activation
system.mem_ctrls1.bytesPerActivate::256-383        21262      1.10%     99.54% # Bytes accessed per row activation
system.mem_ctrls1.bytesPerActivate::384-511         6800      0.35%     99.89% # Bytes accessed per row activation
system.mem_ctrls1.bytesPerActivate::512-639         1765      0.09%     99.98% # Bytes accessed per row activation
system.mem_ctrls1.bytesPerActivate::640-767          283      0.01%    100.00% # Bytes accessed per row activation
system.mem_ctrls1.bytesPerActivate::768-895           53      0.00%    100.00% # Bytes accessed per row activation
system.mem_ctrls1.bytesPerActivate::896-1023            8      0.00%    100.00% # Bytes accessed per row activation
system.mem_ctrls1.bytesPerActivate::1024-1151            8      0.00%    100.00% # Bytes accessed per row activation
system.mem_ctrls1.bytesPerActivate::total      1938398                       # Bytes accessed per row activation
system.mem_ctrls1.rdPerTurnAround::samples        31937                       # Reads before turning the bus around for writes
system.mem_ctrls1.rdPerTurnAround::mean     51.322322                       # Reads before turning the bus around for writes
system.mem_ctrls1.rdPerTurnAround::gmean    48.649364                       # Reads before turning the bus around for writes
system.mem_ctrls1.rdPerTurnAround::stdev   115.286223                       # Reads before turning the bus around for writes
system.mem_ctrls1.rdPerTurnAround::0-1023        31933     99.99%     99.99% # Reads before turning the bus around for writes
system.mem_ctrls1.rdPerTurnAround::1024-2047            2      0.01%     99.99% # Reads before turning the bus around for writes
system.mem_ctrls1.rdPerTurnAround::2048-3071            1      0.00%    100.00% # Reads before turning the bus around for writes
system.mem_ctrls1.rdPerTurnAround::19456-20479            1      0.00%    100.00% # Reads before turning the bus around for writes
system.mem_ctrls1.rdPerTurnAround::total        31937                       # Reads before turning the bus around for writes
system.mem_ctrls1.wrPerTurnAround::samples        31937                       # Writes before turning the bus around for reads
system.mem_ctrls1.wrPerTurnAround::mean     17.158186                       # Writes before turning the bus around for reads
system.mem_ctrls1.wrPerTurnAround::gmean    17.126032                       # Writes before turning the bus around for reads
system.mem_ctrls1.wrPerTurnAround::stdev     1.048499                       # Writes before turning the bus around for reads
system.mem_ctrls1.wrPerTurnAround::16           13893     43.50%     43.50% # Writes before turning the bus around for reads
system.mem_ctrls1.wrPerTurnAround::17             539      1.69%     45.19% # Writes before turning the bus around for reads
system.mem_ctrls1.wrPerTurnAround::18           16151     50.57%     95.76% # Writes before turning the bus around for reads
system.mem_ctrls1.wrPerTurnAround::19            1274      3.99%     99.75% # Writes before turning the bus around for reads
system.mem_ctrls1.wrPerTurnAround::20              76      0.24%     99.99% # Writes before turning the bus around for reads
system.mem_ctrls1.wrPerTurnAround::21               3      0.01%    100.00% # Writes before turning the bus around for reads
system.mem_ctrls1.wrPerTurnAround::23               1      0.00%    100.00% # Writes before turning the bus around for reads
system.mem_ctrls1.wrPerTurnAround::total        31937                       # Writes before turning the bus around for reads
system.mem_ctrls1.totQLat                 86588451541                       # Total ticks spent queuing
system.mem_ctrls1.totMemAccLat           117321239041                       # Total ticks spent from burst creation until serviced by the DRAM
system.mem_ctrls1.totBusLat                8195410000                       # Total ticks spent in databus transfers
system.mem_ctrls1.avgQLat                    52827.41                       # Average queueing delay per DRAM burst
system.mem_ctrls1.avgBusLat                   5000.00                       # Average bus latency per DRAM burst
system.mem_ctrls1.avgMemAccLat               71577.41                       # Average memory access latency per DRAM burst
system.mem_ctrls1.avgRdBW                       70.17                       # Average DRAM read bandwidth in MiByte/s
system.mem_ctrls1.avgWrBW                       23.46                       # Average achieved write bandwidth in MiByte/s
system.mem_ctrls1.avgRdBWSys                    70.18                       # Average system read bandwidth in MiByte/s
system.mem_ctrls1.avgWrBWSys                    23.46                       # Average system write bandwidth in MiByte/s
system.mem_ctrls1.peakBW                     12800.00                       # Theoretical peak bandwidth in MiByte/s
system.mem_ctrls1.busUtil                        0.73                       # Data bus utilization in percentage
system.mem_ctrls1.busUtilRead                    0.55                       # Data bus utilization in percentage for reads
system.mem_ctrls1.busUtilWrite                   0.18                       # Data bus utilization in percentage for writes
system.mem_ctrls1.avgRdQLen                      1.01                       # Average read queue length when enqueuing
system.mem_ctrls1.avgWrQLen                     24.41                       # Average write queue length when enqueuing
system.mem_ctrls1.readRowHits                   36016                       # Number of row buffer hits during reads
system.mem_ctrls1.writeRowHits                 212649                       # Number of row buffer hits during writes
system.mem_ctrls1.readRowHitRate                 2.20                       # Row buffer hit rate for reads
system.mem_ctrls1.writeRowHitRate               38.80                       # Row buffer hit rate for writes
system.mem_ctrls1.avgGap                    683429.74                       # Average gap between requests
system.mem_ctrls1.pageHitRate                   11.37                       # Row buffer hit rate, read and write combined
system.mem_ctrls1_0.actEnergy              6968918460                       # Energy for activate commands per rank (pJ)
system.mem_ctrls1_0.preEnergy              3704068005                       # Energy for precharge commands per rank (pJ)
system.mem_ctrls1_0.readEnergy             5899846260                       # Energy for read commands per rank (pJ)
system.mem_ctrls1_0.writeEnergy            1436147280                       # Energy for write commands per rank (pJ)
system.mem_ctrls1_0.refreshEnergy        120385848960.000031                       # Energy for refresh commands per rank (pJ)
system.mem_ctrls1_0.actBackEnergy         62783284980                       # Energy for active background per rank (pJ)
system.mem_ctrls1_0.preBackEnergy          6154454880                       # Energy for precharge background per rank (pJ)
system.mem_ctrls1_0.actPowerDownEnergy   331583782950                       # Energy for active power-down per rank (pJ)
system.mem_ctrls1_0.prePowerDownEnergy   163448485920                       # Energy for precharge power-down per rank (pJ)
system.mem_ctrls1_0.selfRefreshEnergy     61866157140                       # Energy for self refresh per rank (pJ)
system.mem_ctrls1_0.totalEnergy          764274334425                       # Total energy per rank (pJ)
system.mem_ctrls1_0.averagePower           511.258884                       # Core power per rank (mW)
system.mem_ctrls1_0.totalIdleTime        1341080987533                       # Total Idle time Per DRAM Rank
system.mem_ctrls1_0.memoryStateTime::IDLE   8784481109                       # Time in different power states
system.mem_ctrls1_0.memoryStateTime::REF  51109131381                       # Time in different power states
system.mem_ctrls1_0.memoryStateTime::SREF 188276320881                       # Time in different power states
system.mem_ctrls1_0.memoryStateTime::PRE_PDN 425647528325                       # Time in different power states
system.mem_ctrls1_0.memoryStateTime::ACT  93912337989                       # Time in different power states
system.mem_ctrls1_0.memoryStateTime::ACT_PDN 727157138327                       # Time in different power states
system.mem_ctrls1_1.actEnergy              6871243260                       # Energy for activate commands per rank (pJ)
system.mem_ctrls1_1.preEnergy              3652152405                       # Energy for precharge commands per rank (pJ)
system.mem_ctrls1_1.readEnergy             5803199220                       # Energy for read commands per rank (pJ)
system.mem_ctrls1_1.writeEnergy            1424313540                       # Energy for write commands per rank (pJ)
system.mem_ctrls1_1.refreshEnergy        121434424800.000031                       # Energy for refresh commands per rank (pJ)
system.mem_ctrls1_1.actBackEnergy         61978397100                       # Energy for active background per rank (pJ)
system.mem_ctrls1_1.preBackEnergy          5821624800                       # Energy for precharge background per rank (pJ)
system.mem_ctrls1_1.actPowerDownEnergy   335784957120                       # Energy for active power-down per rank (pJ)
system.mem_ctrls1_1.prePowerDownEnergy   171292806240                       # Energy for precharge power-down per rank (pJ)
system.mem_ctrls1_1.selfRefreshEnergy     54342904290                       # Energy for self refresh per rank (pJ)
system.mem_ctrls1_1.totalEnergy          768468431805                       # Total energy per rank (pJ)
system.mem_ctrls1_1.averagePower           514.064513                       # Core power per rank (mW)
system.mem_ctrls1_1.totalIdleTime        1343672714273                       # Total Idle time Per DRAM Rank
system.mem_ctrls1_1.memoryStateTime::IDLE   8317230894                       # Time in different power states
system.mem_ctrls1_1.memoryStateTime::REF  51543283381                       # Time in different power states
system.mem_ctrls1_1.memoryStateTime::SREF 161224753631                       # Time in different power states
system.mem_ctrls1_1.memoryStateTime::PRE_PDN 446075191736                       # Time in different power states
system.mem_ctrls1_1.memoryStateTime::ACT  91353709464                       # Time in different power states
system.mem_ctrls1_1.memoryStateTime::ACT_PDN 736372768906                       # Time in different power states
system.pwrStateResidencyTicks::UNDEFINED 34798264862373                       # Cumulative time (in ticks) in various power states
system.cpu.branchPred.lookups                       0                       # Number of BP lookups
system.cpu.branchPred.condPredicted                 0                       # Number of conditional branches predicted
system.cpu.branchPred.condIncorrect                 0                       # Number of conditional branches incorrect
system.cpu.branchPred.BTBLookups                    0                       # Number of BTB lookups
system.cpu.branchPred.BTBHits                       0                       # Number of BTB hits
system.cpu.branchPred.BTBCorrect                    0                       # Number of correct BTB predictions (this stat may not work properly.
system.cpu.branchPred.BTBHitPct                   nan                       # BTB Hit Percentage
system.cpu.branchPred.usedRAS                       0                       # Number of times the RAS was used to get a target.
system.cpu.branchPred.RASInCorrect                  0                       # Number of incorrect RAS predictions.
system.cpu.branchPred.indirectLookups               0                       # Number of indirect predictor lookups.
system.cpu.branchPred.indirectHits                  0                       # Number of indirect target hits.
system.cpu.branchPred.indirectMisses                0                       # Number of indirect misses.
system.cpu.branchPredindirectMispredicted            0                       # Number of mispredicted indirect branches.
system.cpu_voltage_domain.voltage                   1                       # Voltage in Volts
system.cpu_clk_domain.clock                       333                       # Clock period in ticks
system.cpu.dtb.fetch_hits                           0                       # ITB hits
system.cpu.dtb.fetch_misses                         0                       # ITB misses
system.cpu.dtb.fetch_acv                            0                       # ITB acv
system.cpu.dtb.fetch_accesses                       0                       # ITB accesses
system.cpu.dtb.read_hits                           16                       # DTB read hits
system.cpu.dtb.read_misses                          0                       # DTB read misses
system.cpu.dtb.read_acv                             0                       # DTB read access violations
system.cpu.dtb.read_accesses                       16                       # DTB read accesses
system.cpu.dtb.write_hits                           1                       # DTB write hits
system.cpu.dtb.write_misses                         0                       # DTB write misses
system.cpu.dtb.write_acv                            0                       # DTB write access violations
system.cpu.dtb.write_accesses                       1                       # DTB write accesses
system.cpu.dtb.data_hits                           17                       # DTB hits
system.cpu.dtb.data_misses                          0                       # DTB misses
system.cpu.dtb.data_acv                             0                       # DTB access violations
system.cpu.dtb.data_accesses                       17                       # DTB accesses
system.cpu.itb.fetch_hits                           4                       # ITB hits
system.cpu.itb.fetch_misses                         0                       # ITB misses
system.cpu.itb.fetch_acv                            0                       # ITB acv
system.cpu.itb.fetch_accesses                       4                       # ITB accesses
system.cpu.itb.read_hits                            0                       # DTB read hits
system.cpu.itb.read_misses                          0                       # DTB read misses
system.cpu.itb.read_acv                             0                       # DTB read access violations
system.cpu.itb.read_accesses                        0                       # DTB read accesses
system.cpu.itb.write_hits                           0                       # DTB write hits
system.cpu.itb.write_misses                         0                       # DTB write misses
system.cpu.itb.write_acv                            0                       # DTB write access violations
system.cpu.itb.write_accesses                       0                       # DTB write accesses
system.cpu.itb.data_hits                            0                       # DTB hits
system.cpu.itb.data_misses                          0                       # DTB misses
system.cpu.itb.data_acv                             0                       # DTB access violations
system.cpu.itb.data_accesses                        0                       # DTB accesses
system.cpu.workload.num_syscalls                    0                       # Number of system calls
system.cpu.pwrStateResidencyTicks::ON    1494886938012                       # Cumulative time (in ticks) in various power states
system.cpu.numCycles                              796                       # number of cpu cycles simulated
system.cpu.numWorkItemsStarted                      0                       # number of work items this cpu started
system.cpu.numWorkItemsCompleted                    0                       # number of work items this cpu completed
system.cpu.fetch.icacheStallCycles                 62                       # Number of cycles fetch is stalled on an Icache miss
system.cpu.fetch.Insts                             17                       # Number of instructions fetch has processed
system.cpu.fetch.Cycles                             3                       # Number of cycles fetch has run and was not squashing or blocked
system.cpu.fetch.SquashCycles                       3                       # Number of cycles fetch has spent squashing
system.cpu.fetch.PendingDrainCycles                 6                       # Number of cycles fetch has spent waiting on pipes to drain
system.cpu.fetch.CacheLines                         4                       # Number of cache lines fetched
system.cpu.fetch.IcacheSquashes                     2                       # Number of outstanding Icache misses that were squashed
system.cpu.fetch.rateDist::samples                 72                       # Number of instructions fetched each cycle (Total)
system.cpu.fetch.rateDist::mean              0.236111                       # Number of instructions fetched each cycle (Total)
system.cpu.fetch.rateDist::stdev             1.326789                       # Number of instructions fetched each cycle (Total)
system.cpu.fetch.rateDist::underflows               0      0.00%      0.00% # Number of instructions fetched each cycle (Total)
system.cpu.fetch.rateDist::0                       69     95.83%     95.83% # Number of instructions fetched each cycle (Total)
system.cpu.fetch.rateDist::1                        1      1.39%     97.22% # Number of instructions fetched each cycle (Total)
system.cpu.fetch.rateDist::2                        0      0.00%     97.22% # Number of instructions fetched each cycle (Total)
system.cpu.fetch.rateDist::3                        0      0.00%     97.22% # Number of instructions fetched each cycle (Total)
system.cpu.fetch.rateDist::4                        0      0.00%     97.22% # Number of instructions fetched each cycle (Total)
system.cpu.fetch.rateDist::5                        0      0.00%     97.22% # Number of instructions fetched each cycle (Total)
system.cpu.fetch.rateDist::6                        0      0.00%     97.22% # Number of instructions fetched each cycle (Total)
system.cpu.fetch.rateDist::7                        0      0.00%     97.22% # Number of instructions fetched each cycle (Total)
system.cpu.fetch.rateDist::8                        2      2.78%    100.00% # Number of instructions fetched each cycle (Total)
[...]
system.switch_cpus_1.iq.rate                 1.592028                       # Inst issue rate
system.switch_cpus_1.iq.fu_busy_cnt          15159901                       # FU busy when requested
system.switch_cpus_1.iq.fu_busy_rate         0.073671                       # FU busy rate (busy events/executed inst)
system.switch_cpus_1.iq.int_inst_queue_reads    189720048                       # Number of integer instruction queue reads
system.switch_cpus_1.iq.int_inst_queue_writes     28245945                       # Number of integer instruction queue writes
system.switch_cpus_1.iq.int_inst_queue_wakeup_accesses     27843525                       # Number of integer instruction queue wakeup accesses
system.switch_cpus_1.iq.fp_inst_queue_reads    366289476                       # Number of floating instruction queue reads
system.switch_cpus_1.iq.fp_inst_queue_writes    173987896                       # Number of floating instruction queue writes
system.switch_cpus_1.iq.fp_inst_queue_wakeup_accesses    172769578                       # Number of floating instruction queue wakeup accesses
system.switch_cpus_1.iq.int_alu_accesses     31717768                       # Number of integer alu accesses
system.switch_cpus_1.iq.fp_alu_accesses     189221091                       # Number of floating point alu accesses
system.switch_cpus_1.iew.lsq.thread0.forwLoads      9197625                       # Number of loads that had data forwarded from stores
system.switch_cpus_1.iew.lsq.thread0.invAddrLoads            0                       # Number of loads ignored due to an invalid address
system.switch_cpus_1.iew.lsq.thread0.squashedLoads       415155                       # Number of loads squashed
system.switch_cpus_1.iew.lsq.thread0.ignoredResponses          396                       # Number of memory responses ignored because the instruction is squashed
system.switch_cpus_1.iew.lsq.thread0.memOrderViolation        20857                       # Number of memory ordering violations
system.switch_cpus_1.iew.lsq.thread0.squashedStores       222000                       # Number of stores squashed
system.switch_cpus_1.iew.lsq.thread0.invAddrSwpfs            0                       # Number of software prefetches ignored due to an invalid address
system.switch_cpus_1.iew.lsq.thread0.blockedLoads            0                       # Number of blocked loads due to partial load-store forwarding
system.switch_cpus_1.iew.lsq.thread0.rescheduledLoads            0                       # Number of loads that were rescheduled
system.switch_cpus_1.iew.lsq.thread0.cacheBlocked      5261294                       # Number of times an access to memory failed due to the cache being blocked
system.switch_cpus_1.iew.iewIdleCycles              0                       # Number of cycles IEW is idle
system.switch_cpus_1.iew.iewSquashCycles        25157                       # Number of cycles IEW is squashing
system.switch_cpus_1.iew.iewBlockCycles      14653351                       # Number of cycles IEW is blocking
system.switch_cpus_1.iew.iewUnblockCycles     21325101                       # Number of cycles IEW is unblocking
system.switch_cpus_1.iew.iewDispatchedInsts    201106600                       # Number of instructions dispatched to IQ
system.switch_cpus_1.iew.iewDispSquashedInsts         2096                       # Number of squashed instructions skipped by dispatch
system.switch_cpus_1.iew.iewDispLoadInsts     82549074                       # Number of dispatched load instructions
system.switch_cpus_1.iew.iewDispStoreInsts     38176756                       # Number of dispatched store instructions
system.switch_cpus_1.iew.iewDispNonSpecInsts            0                       # Number of dispatched non-speculative instructions
system.switch_cpus_1.iew.iewIQFullEvents        16740                       # Number of times the IQ has become full, causing a stall
system.switch_cpus_1.iew.iewLSQFullEvents     21245761                       # Number of times the LSQ has become full, causing a stall
system.switch_cpus_1.iew.memOrderViolationEvents        20857                       # Number of memory order violations
system.switch_cpus_1.iew.predictedTakenIncorrect         1397                       # Number of branches that were predicted taken incorrectly
system.switch_cpus_1.iew.predictedNotTakenIncorrect           68                       # Number of branches that were predicted not taken incorrectly
system.switch_cpus_1.iew.branchMispredicts         1465                       # Number of branch mispredicts detected at execute
system.switch_cpus_1.iew.iewExecutedInsts    205715256                       # Number of executed instructions
system.switch_cpus_1.iew.iewExecLoadInsts     87445856                       # Number of load instructions executed
system.switch_cpus_1.iew.iewExecSquashedInsts        63694                       # Number of squashed instructions skipped in execute
system.switch_cpus_1.iew.exec_swp                   0                       # number of swp insts executed
system.switch_cpus_1.iew.exec_nop                  27                       # number of nop insts executed
system.switch_cpus_1.iew.exec_refs          125496556                       # number of memory reference insts executed
system.switch_cpus_1.iew.exec_branches         171898                       # Number of branches executed
system.switch_cpus_1.iew.exec_stores         38050700                       # Number of stores executed
system.switch_cpus_1.iew.exec_rate           1.591535                       # Inst execution rate
system.switch_cpus_1.iew.wb_sent            200670296                       # cumulative count of insts sent to commit
system.switch_cpus_1.iew.wb_count           200613103                       # cumulative count of insts written-back
system.switch_cpus_1.iew.wb_producers       131397628                       # num instructions producing a value
system.switch_cpus_1.iew.wb_consumers       136798599                       # num instructions consuming a value
system.switch_cpus_1.iew.wb_rate             1.552062                       # insts written-back per cycle
system.switch_cpus_1.iew.wb_fanout           0.960519                       # average fanout of values written-back
system.switch_cpus_1.commit.commitSquashedInsts      1062358                       # The number of squashed insts skipped by commit
system.switch_cpus_1.commit.branchMispredicts         1459                       # The number of times a branch was mispredicted
system.switch_cpus_1.commit.committed_per_cycle::samples    129109251                       # Number of insts commited each cycle
system.switch_cpus_1.commit.committed_per_cycle::mean     1.549076                       # Number of insts commited each cycle
system.switch_cpus_1.commit.committed_per_cycle::stdev     2.888241                       # Number of insts commited each cycle
system.switch_cpus_1.commit.committed_per_cycle::underflows            0      0.00%      0.00% # Number of insts commited each cycle
system.switch_cpus_1.commit.committed_per_cycle::0     94661921     73.32%     73.32% # Number of insts commited each cycle
system.switch_cpus_1.commit.committed_per_cycle::1      2879862      2.23%     75.55% # Number of insts commited each cycle
system.switch_cpus_1.commit.committed_per_cycle::2      3085745      2.39%     77.94% # Number of insts commited each cycle
system.switch_cpus_1.commit.committed_per_cycle::3      2403244      1.86%     79.80% # Number of insts commited each cycle
system.switch_cpus_1.commit.committed_per_cycle::4      2984889      2.31%     82.11% # Number of insts commited each cycle
system.switch_cpus_1.commit.committed_per_cycle::5      2471890      1.91%     84.03% # Number of insts commited each cycle
system.switch_cpus_1.commit.committed_per_cycle::6      1822407      1.41%     85.44% # Number of insts commited each cycle
system.switch_cpus_1.commit.committed_per_cycle::7      1888852      1.46%     86.90% # Number of insts commited each cycle
system.switch_cpus_1.commit.committed_per_cycle::8     16910441     13.10%    100.00% # Number of insts commited each cycle
system.switch_cpus_1.commit.committed_per_cycle::overflows            0      0.00%    100.00% # Number of insts commited each cycle
system.switch_cpus_1.commit.committed_per_cycle::min_value            0                       # Number of insts commited each cycle
system.switch_cpus_1.commit.committed_per_cycle::max_value            8                       # Number of insts commited each cycle
system.switch_cpus_1.commit.committed_per_cycle::total    129109251                       # Number of insts commited each cycle
system.switch_cpus_1.commit.committedInsts    200000024                       # Number of instructions committed
system.switch_cpus_1.commit.committedOps    200000024                       # Number of ops (including micro ops) committed
system.switch_cpus_1.commit.swp_count               0                       # Number of s/w prefetches committed
system.switch_cpus_1.commit.refs            120088640                       # Number of memory references committed
system.switch_cpus_1.commit.loads            82133897                       # Number of loads committed
system.switch_cpus_1.commit.membars                 0                       # Number of memory barriers committed
system.switch_cpus_1.commit.branches           167612                       # Number of branches committed
system.switch_cpus_1.commit.fp_insts        172405126                       # Number of committed floating point instructions.
system.switch_cpus_1.commit.int_insts       135398704                       # Number of committed integer instructions.
system.switch_cpus_1.commit.function_calls            0                       # Number of function calls committed.
system.switch_cpus_1.commit.op_class_0::No_OpClass           18      0.00%      0.00% # Class of committed instruction
system.switch_cpus_1.commit.op_class_0::IntAlu     15310537      7.66%      7.66% # Class of committed instruction
system.switch_cpus_1.commit.op_class_0::IntMult          186      0.00%      7.66% # Class of committed instruction
system.switch_cpus_1.commit.op_class_0::IntDiv            0      0.00%      7.66% # Class of committed instruction
system.switch_cpus_1.commit.op_class_0::FloatAdd     36073856     18.04%     25.69% # Class of committed instruction
system.switch_cpus_1.commit.op_class_0::FloatCmp            0      0.00%     25.69% # Class of committed instruction
system.switch_cpus_1.commit.op_class_0::FloatCvt            0      0.00%     25.69% # Class of committed instruction
system.switch_cpus_1.commit.op_class_0::FloatMult     28449010     14.22%     39.92% # Class of committed instruction
system.switch_cpus_1.commit.op_class_0::FloatMultAcc            0      0.00%     39.92% # Class of committed instruction
system.switch_cpus_1.commit.op_class_0::FloatDiv        77777      0.04%     39.96% # Class of committed instruction
system.switch_cpus_1.commit.op_class_0::FloatMisc            0      0.00%     39.96% # Class of committed instruction
system.switch_cpus_1.commit.op_class_0::FloatSqrt            0      0.00%     39.96% # Class of committed instruction
system.switch_cpus_1.commit.op_class_0::SimdAdd            0      0.00%     39.96% # Class of committed instruction
system.switch_cpus_1.commit.op_class_0::SimdAddAcc            0      0.00%     39.96% # Class of committed instruction
system.switch_cpus_1.commit.op_class_0::SimdAlu            0      0.00%     39.96% # Class of committed instruction
system.switch_cpus_1.commit.op_class_0::SimdCmp            0      0.00%     39.96% # Class of committed instruction
system.switch_cpus_1.commit.op_class_0::SimdCvt            0      0.00%     39.96% # Class of committed instruction
system.switch_cpus_1.commit.op_class_0::SimdMisc            0      0.00%     39.96% # Class of committed instruction
system.switch_cpus_1.commit.op_class_0::SimdMult            0      0.00%     39.96% # Class of committed instruction
system.switch_cpus_1.commit.op_class_0::SimdMultAcc            0      0.00%     39.96% # Class of committed instruction
system.switch_cpus_1.commit.op_class_0::SimdShift            0      0.00%     39.96% # Class of committed instruction
system.switch_cpus_1.commit.op_class_0::SimdShiftAcc            0      0.00%     39.96% # Class of committed instruction
system.switch_cpus_1.commit.op_class_0::SimdSqrt            0      0.00%     39.96% # Class of committed instruction
system.switch_cpus_1.commit.op_class_0::SimdFloatAdd            0      0.00%     39.96% # Class of committed instruction
system.switch_cpus_1.commit.op_class_0::SimdFloatAlu            0      0.00%     39.96% # Class of committed instruction
system.switch_cpus_1.commit.op_class_0::SimdFloatCmp            0      0.00%     39.96% # Class of committed instruction
system.switch_cpus_1.commit.op_class_0::SimdFloatCvt            0      0.00%     39.96% # Class of committed instruction
system.switch_cpus_1.commit.op_class_0::SimdFloatDiv            0      0.00%     39.96% # Class of committed instruction
system.switch_cpus_1.commit.op_class_0::SimdFloatMisc            0      0.00%     39.96% # Class of committed instruction
system.switch_cpus_1.commit.op_class_0::SimdFloatMult            0      0.00%     39.96% # Class of committed instruction
system.switch_cpus_1.commit.op_class_0::SimdFloatMultAcc            0      0.00%     39.96% # Class of committed instruction
system.switch_cpus_1.commit.op_class_0::SimdFloatSqrt            0      0.00%     39.96% # Class of committed instruction
system.switch_cpus_1.commit.op_class_0::MemRead      8202704      4.10%     44.06% # Class of committed instruction
system.switch_cpus_1.commit.op_class_0::MemWrite      4081453      2.04%     46.10% # Class of committed instruction
system.switch_cpus_1.commit.op_class_0::FloatMemRead     73931193     36.97%     83.06% # Class of committed instruction
system.switch_cpus_1.commit.op_class_0::FloatMemWrite     33873290     16.94%    100.00% # Class of committed instruction
system.switch_cpus_1.commit.op_class_0::IprAccess            0      0.00%    100.00% # Class of committed instruction
system.switch_cpus_1.commit.op_class_0::InstPrefetch            0      0.00%    100.00% # Class of committed instruction
system.switch_cpus_1.commit.op_class_0::total    200000024                       # Class of committed instruction
system.switch_cpus_1.commit.bw_lim_events     16910441                       # number cycles where commit BW limit reached
system.switch_cpus_1.rob.rob_reads          313183192                       # The number of ROB reads
system.switch_cpus_1.rob.rob_writes         402272248                       # The number of ROB writes
system.switch_cpus_1.timesIdled                     3                       # Number of times that the entire CPU went into an idle state and unscheduled itself
system.switch_cpus_1.idleCycles                   264                       # Total number of cycles that the CPU has spent unscheduled due to idling
system.switch_cpus_1.committedInsts         200000006                       # Number of Instructions Simulated
system.switch_cpus_1.committedOps           200000006                       # Number of Ops (including micro ops) Simulated
system.switch_cpus_1.cpi                     0.646279                       # CPI: Cycles Per Instruction
system.switch_cpus_1.cpi_total               0.646279                       # CPI: Total CPI of All Threads
system.switch_cpus_1.ipc                     1.547319                       # IPC: Instructions Per Cycle
system.switch_cpus_1.ipc_total               1.547319                       # IPC: Total IPC of All Threads
system.switch_cpus_1.int_regfile_reads      145538435                       # number of integer regfile reads
system.switch_cpus_1.int_regfile_writes      23579724                       # number of integer regfile writes
system.switch_cpus_1.fp_regfile_reads       163401162                       # number of floating regfile reads
system.switch_cpus_1.fp_regfile_writes      138857508                       # number of floating regfile writes
system.tol3bus.snoop_filter.tot_requests      7960952                       # Total number of requests made to the snoop filter.
system.tol3bus.snoop_filter.hit_single_requests      3978502                       # Number of requests hitting in the snoop filter with a single holder of the requested data.
system.tol3bus.snoop_filter.hit_multi_requests            0                       # Number of requests hitting in the snoop filter with multiple (>1) holders of the requested data.
system.tol3bus.snoop_filter.tot_snoops          22153                       # Total number of snoops made to the snoop filter.
system.tol3bus.snoop_filter.hit_single_snoops        22153                       # Number of snoops hitting in the snoop filter with a single holder of the requested data.
system.tol3bus.snoop_filter.hit_multi_snoops            0                       # Number of snoops hitting in the snoop filter with multiple (>1) holders of the requested data.
system.tol3bus.pwrStateResidencyTicks::UNDEFINED 34798264862373                       # Cumulative time (in ticks) in various power states
system.tol3bus.trans_dist::ReadResp           2827608                       # Transaction distribution
system.tol3bus.trans_dist::WritebackDirty      2571641                       # Transaction distribution
system.tol3bus.trans_dist::CleanEvict         4619890                       # Transaction distribution
system.tol3bus.trans_dist::ReadExReq          1154842                       # Transaction distribution
system.tol3bus.trans_dist::ReadExResp         1154842                       # Transaction distribution
system.tol3bus.trans_dist::ReadSharedReq      2827608                       # Transaction distribution
system.tol3bus.pkt_count_system.cpu.l2.mem_side::system.l3.cpu_side     11943402                       # Packet count per connected master and slave (bytes)
system.tol3bus.pkt_size_system.cpu.l2.mem_side::system.l3.cpu_side    349305664                       # Cumulative packet size per connected master and slave (bytes)
system.tol3bus.snoops                         3213029                       # Total snoops (count)
system.tol3bus.snoopTraffic                  70156160                       # Total snoop traffic (bytes)
system.tol3bus.snoop_fanout::samples          7195479                       # Request fanout histogram
system.tol3bus.snoop_fanout::mean            0.003079                       # Request fanout histogram
system.tol3bus.snoop_fanout::stdev           0.055401                       # Request fanout histogram
system.tol3bus.snoop_fanout::underflows             0      0.00%      0.00% # Request fanout histogram
system.tol3bus.snoop_fanout::0                7173326     99.69%     99.69% # Request fanout histogram
system.tol3bus.snoop_fanout::1                  22153      0.31%    100.00% # Request fanout histogram
system.tol3bus.snoop_fanout::overflows              0      0.00%    100.00% # Request fanout histogram
system.tol3bus.snoop_fanout::min_value              0                       # Request fanout histogram
system.tol3bus.snoop_fanout::max_value              1                       # Request fanout histogram
system.tol3bus.snoop_fanout::total            7195479                       # Request fanout histogram
system.tol3bus.reqLayer0.occupancy         3142322199                       # Layer occupancy (ticks)
system.tol3bus.reqLayer0.utilization              0.2                       # Layer utilization (%)
system.tol3bus.respLayer0.occupancy        2652311700                       # Layer occupancy (ticks)
system.tol3bus.respLayer0.utilization             0.2                       # Layer utilization (%)

---------- End Simulation Statistics   ----------
