
---------- Begin Simulation Statistics ----------
sim_seconds                                  1.090628                       # Number of seconds simulated
sim_ticks                                1090627738875                       # Number of ticks simulated
final_tick                               31102041899925                       # Number of ticks from beginning of simulation (restored from checkpoints and never reset)
sim_freq                                 1000000000000                       # Frequency of simulated ticks
host_inst_rate                                 501593                       # Simulator instruction rate (inst/s)
host_op_rate                                   501593                       # Simulator op (including micro ops) rate (op/s)
host_tick_rate                              455875596                       # Simulator tick rate (ticks/s)
host_mem_usage                                2425156                       # Number of bytes of host memory used
host_seconds                                  2392.38                       # Real time elapsed on the host
sim_insts                                  1200000007                       # Number of instructions simulated
sim_ops                                    1200000007                       # Number of ops (including micro ops) simulated
system.voltage_domain.voltage                       1                       # Voltage in Volts
system.clk_domain.clock                          1000                       # Clock period in ticks
system.mem_ctrls0.pwrStateResidencyTicks::UNDEFINED 31102041899925                       # Cumulative time (in ticks) in various power states
system.mem_ctrls0.bytes_read::cpu.inst             64                       # Number of bytes read from this memory
system.mem_ctrls0.bytes_read::switch_cpus.inst       137920                       # Number of bytes read from this memory
system.mem_ctrls0.bytes_read::switch_cpus.data      3611328                       # Number of bytes read from this memory
system.mem_ctrls0.bytes_read::switch_cpus_1.inst       106368                       # Number of bytes read from this memory
system.mem_ctrls0.bytes_read::switch_cpus_1.data      1550336                       # Number of bytes read from this memory
system.mem_ctrls0.bytes_read::total           5406016                       # Number of bytes read from this memory
system.mem_ctrls0.bytes_inst_read::cpu.inst           64                       # Number of instructions bytes read from this memory
system.mem_ctrls0.bytes_inst_read::switch_cpus.inst       137920                       # Number of instructions bytes read from this memory
system.mem_ctrls0.bytes_inst_read::switch_cpus_1.inst       106368                       # Number of instructions bytes read from this memory
system.mem_ctrls0.bytes_inst_read::total       244352                       # Number of instructions bytes read from this memory
system.mem_ctrls0.bytes_written::writebacks       704128                       # Number of bytes written to this memory
system.mem_ctrls0.bytes_written::total         704128                       # Number of bytes written to this memory
system.mem_ctrls0.num_reads::cpu.inst               1                       # Number of read requests responded to by this memory
system.mem_ctrls0.num_reads::switch_cpus.inst         2155                       # Number of read requests responded to by this memory
system.mem_ctrls0.num_reads::switch_cpus.data        56427                       # Number of read requests responded to by this memory
system.mem_ctrls0.num_reads::switch_cpus_1.inst         1662                       # Number of read requests responded to by this memory
system.mem_ctrls0.num_reads::switch_cpus_1.data        24224                       # Number of read requests responded to by this memory
system.mem_ctrls0.num_reads::total              84469                       # Number of read requests responded to by this memory
system.mem_ctrls0.num_writes::writebacks        11002                       # Number of write requests responded to by this memory
system.mem_ctrls0.num_writes::total             11002                       # Number of write requests responded to by this memory
system.mem_ctrls0.bw_read::cpu.inst                59                       # Total read bandwidth from this memory (bytes/s)
system.mem_ctrls0.bw_read::switch_cpus.inst       126459                       # Total read bandwidth from this memory (bytes/s)
system.mem_ctrls0.bw_read::switch_cpus.data      3311238                       # Total read bandwidth from this memory (bytes/s)
system.mem_ctrls0.bw_read::switch_cpus_1.inst        97529                       # Total read bandwidth from this memory (bytes/s)
system.mem_ctrls0.bw_read::switch_cpus_1.data      1421508                       # Total read bandwidth from this memory (bytes/s)
system.mem_ctrls0.bw_read::total              4956793                       # Total read bandwidth from this memory (bytes/s)
system.mem_ctrls0.bw_inst_read::cpu.inst           59                       # Instruction read bandwidth from this memory (bytes/s)
system.mem_ctrls0.bw_inst_read::switch_cpus.inst       126459                       # Instruction read bandwidth from this memory (bytes/s)
system.mem_ctrls0.bw_inst_read::switch_cpus_1.inst        97529                       # Instruction read bandwidth from this memory (bytes/s)
system.mem_ctrls0.bw_inst_read::total          224047                       # Instruction read bandwidth from this memory (bytes/s)
system.mem_ctrls0.bw_write::writebacks         645617                       # Write bandwidth from this memory (bytes/s)
system.mem_ctrls0.bw_write::total              645617                       # Write bandwidth from this memory (bytes/s)
system.mem_ctrls0.bw_total::writebacks         645617                       # Total bandwidth to/from this memory (bytes/s)
system.mem_ctrls0.bw_total::cpu.inst               59                       # Total bandwidth to/from this memory (bytes/s)
system.mem_ctrls0.bw_total::switch_cpus.inst       126459                       # Total bandwidth to/from this memory (bytes/s)
system.mem_ctrls0.bw_total::switch_cpus.data      3311238                       # Total bandwidth to/from this memory (bytes/s)
system.mem_ctrls0.bw_total::switch_cpus_1.inst        97529                       # Total bandwidth to/from this memory (bytes/s)
system.mem_ctrls0.bw_total::switch_cpus_1.data      1421508                       # Total bandwidth to/from this memory (bytes/s)
system.mem_ctrls0.bw_total::total             5602410                       # Total bandwidth to/from this memory (bytes/s)
system.mem_ctrls0.readReqs                      84469                       # Number of read requests accepted
system.mem_ctrls0.writeReqs                     11002                       # Number of write requests accepted
system.mem_ctrls0.readBursts                    84469                       # Number of DRAM read bursts, including those serviced by the write queue
system.mem_ctrls0.writeBursts                   11002                       # Number of DRAM write bursts, including those merged in the write queue
system.mem_ctrls0.bytesReadDRAM               5403136                       # Total number of bytes read from DRAM
system.mem_ctrls0.bytesReadWrQ                   2880                       # Total number of bytes read from write queue
system.mem_ctrls0.bytesWritten                 702720                       # Total number of bytes written to DRAM
system.mem_ctrls0.bytesReadSys                5406016                       # Total read bytes from the system interface side
system.mem_ctrls0.bytesWrittenSys              704128                       # Total written bytes from the system interface side
system.mem_ctrls0.servicedByWrQ                    45                       # Number of DRAM read bursts serviced by the write queue
system.mem_ctrls0.mergedWrBursts                    0                       # Number of DRAM write bursts merged with an existing one
system.mem_ctrls0.neitherReadNorWriteReqs            0                       # Number of requests that are neither read nor write
system.mem_ctrls0.perBankRdBursts::0             5302                       # Per bank write bursts
system.mem_ctrls0.perBankRdBursts::1             5376                       # Per bank write bursts
system.mem_ctrls0.perBankRdBursts::2             5911                       # Per bank write bursts
system.mem_ctrls0.perBankRdBursts::3             5539                       # Per bank write bursts
system.mem_ctrls0.perBankRdBursts::4             5145                       # Per bank write bursts
system.mem_ctrls0.perBankRdBursts::5             5191                       # Per bank write bursts
system.mem_ctrls0.perBankRdBursts::6             4760                       # Per bank write bursts
system.mem_ctrls0.perBankRdBursts::7             4893                       # Per bank write bursts
system.mem_ctrls0.perBankRdBursts::8             4949                       # Per bank write bursts
system.mem_ctrls0.perBankRdBursts::9             5060                       # Per bank write bursts
system.mem_ctrls0.perBankRdBursts::10            4874                       # Per bank write bursts
system.mem_ctrls0.perBankRdBursts::11            4663                       # Per bank write bursts
system.mem_ctrls0.perBankRdBursts::12            5966                       # Per bank write bursts
system.mem_ctrls0.perBankRdBursts::13            5497                       # Per bank write bursts
system.mem_ctrls0.perBankRdBursts::14            5553                       # Per bank write bursts
system.mem_ctrls0.perBankRdBursts::15            5745                       # Per bank write bursts
system.mem_ctrls0.perBankWrBursts::0              706                       # Per bank write bursts
system.mem_ctrls0.perBankWrBursts::1              736                       # Per bank write bursts
system.mem_ctrls0.perBankWrBursts::2              810                       # Per bank write bursts
system.mem_ctrls0.perBankWrBursts::3              722                       # Per bank write bursts
system.mem_ctrls0.perBankWrBursts::4              679                       # Per bank write bursts
system.mem_ctrls0.perBankWrBursts::5              622                       # Per bank write bursts
system.mem_ctrls0.perBankWrBursts::6              504                       # Per bank write bursts
system.mem_ctrls0.perBankWrBursts::7              660                       # Per bank write bursts
system.mem_ctrls0.perBankWrBursts::8              656                       # Per bank write bursts
system.mem_ctrls0.perBankWrBursts::9              521                       # Per bank write bursts
system.mem_ctrls0.perBankWrBursts::10             540                       # Per bank write bursts
system.mem_ctrls0.perBankWrBursts::11             614                       # Per bank write bursts
system.mem_ctrls0.perBankWrBursts::12             873                       # Per bank write bursts
system.mem_ctrls0.perBankWrBursts::13             789                       # Per bank write bursts
system.mem_ctrls0.perBankWrBursts::14             819                       # Per bank write bursts
system.mem_ctrls0.perBankWrBursts::15             729                       # Per bank write bursts
system.mem_ctrls0.numRdRetry                        0                       # Number of times read queue was full causing retry
system.mem_ctrls0.numWrRetry                        0                       # Number of times write queue was full causing retry
system.mem_ctrls0.totGap                 1090618614675                       # Total gap between requests
system.mem_ctrls0.readPktSize::0                    0                       # Read request sizes (log2)
system.mem_ctrls0.readPktSize::1                    0                       # Read request sizes (log2)
system.mem_ctrls0.readPktSize::2                    0                       # Read request sizes (log2)
system.mem_ctrls0.readPktSize::3                    0                       # Read request sizes (log2)
system.mem_ctrls0.readPktSize::4                    0                       # Read request sizes (log2)
system.mem_ctrls0.readPktSize::5                    0                       # Read request sizes (log2)
system.mem_ctrls0.readPktSize::6                84469                       # Read request sizes (log2)
system.mem_ctrls0.writePktSize::0                   0                       # Write request sizes (log2)
system.mem_ctrls0.writePktSize::1                   0                       # Write request sizes (log2)
system.mem_ctrls0.writePktSize::2                   0                       # Write request sizes (log2)
system.mem_ctrls0.writePktSize::3                   0                       # Write request sizes (log2)
system.mem_ctrls0.writePktSize::4                   0                       # Write request sizes (log2)
system.mem_ctrls0.writePktSize::5                   0                       # Write request sizes (log2)
system.mem_ctrls0.writePktSize::6               11002                       # Write request sizes (log2)
system.mem_ctrls0.rdQLenPdf::0                  82207                       # What read queue length does an incoming req see
system.mem_ctrls0.rdQLenPdf::1                   2134                       # What read queue length does an incoming req see
system.mem_ctrls0.rdQLenPdf::2                     75                       # What read queue length does an incoming req see
system.mem_ctrls0.rdQLenPdf::3                      8                       # What read queue length does an incoming req see
system.mem_ctrls0.rdQLenPdf::4                      0                       # What read queue length does an incoming req see
system.mem_ctrls0.rdQLenPdf::5                      0                       # What read queue length does an incoming req see
system.mem_ctrls0.rdQLenPdf::6                      0                       # What read queue length does an incoming req see
system.mem_ctrls0.rdQLenPdf::7                      0                       # What read queue length does an incoming req see
system.mem_ctrls0.rdQLenPdf::8                      0                       # What read queue length does an incoming req see
system.mem_ctrls0.rdQLenPdf::9                      0                       # What read queue length does an incoming req see
system.mem_ctrls0.rdQLenPdf::10                     0                       # What read queue length does an incoming req see
system.mem_ctrls0.rdQLenPdf::11                     0                       # What read queue length does an incoming req see
system.mem_ctrls0.rdQLenPdf::12                     0                       # What read queue length does an incoming req see
system.mem_ctrls0.rdQLenPdf::13                     0                       # What read queue length does an incoming req see
system.mem_ctrls0.rdQLenPdf::14                     0                       # What read queue length does an incoming req see
system.mem_ctrls0.rdQLenPdf::15                     0                       # What read queue length does an incoming req see
system.mem_ctrls0.rdQLenPdf::16                     0                       # What read queue length does an incoming req see
system.mem_ctrls0.rdQLenPdf::17                     0                       # What read queue length does an incoming req see
system.mem_ctrls0.rdQLenPdf::18                     0                       # What read queue length does an incoming req see
system.mem_ctrls0.rdQLenPdf::19                     0                       # What read queue length does an incoming req see
system.mem_ctrls0.rdQLenPdf::20                     0                       # What read queue length does an incoming req see
system.mem_ctrls0.rdQLenPdf::21                     0                       # What read queue length does an incoming req see
system.mem_ctrls0.rdQLenPdf::22                     0                       # What read queue length does an incoming req see
system.mem_ctrls0.rdQLenPdf::23                     0                       # What read queue length does an incoming req see
system.mem_ctrls0.rdQLenPdf::24                     0                       # What read queue length does an incoming req see
system.mem_ctrls0.rdQLenPdf::25                     0                       # What read queue length does an incoming req see
system.mem_ctrls0.rdQLenPdf::26                     0                       # What read queue length does an incoming req see
system.mem_ctrls0.rdQLenPdf::27                     0                       # What read queue length does an incoming req see
system.mem_ctrls0.rdQLenPdf::28                     0                       # What read queue length does an incoming req see
system.mem_ctrls0.rdQLenPdf::29                     0                       # What read queue length does an incoming req see
system.mem_ctrls0.rdQLenPdf::30                     0                       # What read queue length does an incoming req see
system.mem_ctrls0.rdQLenPdf::31                     0                       # What read queue length does an incoming req see
system.mem_ctrls0.wrQLenPdf::0                      2                       # What write queue length does an incoming req see
system.mem_ctrls0.wrQLenPdf::1                      2                       # What write queue length does an incoming req see
system.mem_ctrls0.wrQLenPdf::2                      2                       # What write queue length does an incoming req see
system.mem_ctrls0.wrQLenPdf::3                      2                       # What write queue length does an incoming req see
system.mem_ctrls0.wrQLenPdf::4                      2                       # What write queue length does an incoming req see
system.mem_ctrls0.wrQLenPdf::5                      2                       # What write queue length does an incoming req see
system.mem_ctrls0.wrQLenPdf::6                      2                       # What write queue length does an incoming req see
system.mem_ctrls0.wrQLenPdf::7                      2                       # What write queue length does an incoming req see
system.mem_ctrls0.wrQLenPdf::8                      2                       # What write queue length does an incoming req see
system.mem_ctrls0.wrQLenPdf::9                      2                       # What write queue length does an incoming req see
system.mem_ctrls0.wrQLenPdf::10                     2                       # What write queue length does an incoming req see
system.mem_ctrls0.wrQLenPdf::11                     2                       # What write queue length does an incoming req see
system.mem_ctrls0.wrQLenPdf::12                     2                       # What write queue length does an incoming req see
system.mem_ctrls0.wrQLenPdf::13                     2                       # What write queue length does an incoming req see
system.mem_ctrls0.wrQLenPdf::14                     2                       # What write queue length does an incoming req see
system.mem_ctrls0.wrQLenPdf::15                   508                       # What write queue length does an incoming req see
system.mem_ctrls0.wrQLenPdf::16                   521                       # What write queue length does an incoming req see
system.mem_ctrls0.wrQLenPdf::17                   614                       # What write queue length does an incoming req see
system.mem_ctrls0.wrQLenPdf::18                   622                       # What write queue length does an incoming req see
system.mem_ctrls0.wrQLenPdf::19                   622                       # What write queue length does an incoming req see
system.mem_ctrls0.wrQLenPdf::20                   625                       # What write queue length does an incoming req see
system.mem_ctrls0.wrQLenPdf::21                   622                       # What write queue length does an incoming req see
system.mem_ctrls0.wrQLenPdf::22                   621                       # What write queue length does an incoming req see
system.mem_ctrls0.wrQLenPdf::23                   624                       # What write queue length does an incoming req see
system.mem_ctrls0.wrQLenPdf::24                   621                       # What write queue length does an incoming req see
system.mem_ctrls0.wrQLenPdf::25                   623                       # What write queue length does an incoming req see
system.mem_ctrls0.wrQLenPdf::26                   620                       # What write queue length does an incoming req see
system.mem_ctrls0.wrQLenPdf::27                   620                       # What write queue length does an incoming req see
system.mem_ctrls0.wrQLenPdf::28                   622                       # What write queue length does an incoming req see
system.mem_ctrls0.wrQLenPdf::29                   621                       # What write queue length does an incoming req see
system.mem_ctrls0.wrQLenPdf::30                   625                       # What write queue length does an incoming req see
system.mem_ctrls0.wrQLenPdf::31                   619                       # What write queue length does an incoming req see
system.mem_ctrls0.wrQLenPdf::32                   620                       # What write queue length does an incoming req see
system.mem_ctrls0.wrQLenPdf::33                     2                       # What write queue length does an incoming req see
system.mem_ctrls0.wrQLenPdf::34                     0                       # What write queue length does an incoming req see
system.mem_ctrls0.wrQLenPdf::35                     0                       # What write queue length does an incoming req see
system.mem_ctrls0.wrQLenPdf::36                     0                       # What write queue length does an incoming req see
system.mem_ctrls0.wrQLenPdf::37                     0                       # What write queue length does an incoming req see
system.mem_ctrls0.wrQLenPdf::38                     0                       # What write queue length does an incoming req see
system.mem_ctrls0.wrQLenPdf::39                     0                       # What write queue length does an incoming req see
system.mem_ctrls0.wrQLenPdf::40                     0                       # What write queue length does an incoming req see
system.mem_ctrls0.wrQLenPdf::41                     0                       # What write queue length does an incoming req see
system.mem_ctrls0.wrQLenPdf::42                     0                       # What write queue length does an incoming req see
system.mem_ctrls0.wrQLenPdf::43                     0                       # What write queue length does an incoming req see
system.mem_ctrls0.wrQLenPdf::44                     0                       # What write queue length does an incoming req see
system.mem_ctrls0.wrQLenPdf::45                     0                       # What write queue length does an incoming req see
system.mem_ctrls0.wrQLenPdf::46                     0                       # What write queue length does an incoming req see
system.mem_ctrls0.wrQLenPdf::47                     0                       # What write queue length does an incoming req see
system.mem_ctrls0.wrQLenPdf::48                     0                       # What write queue length does an incoming req see
system.mem_ctrls0.wrQLenPdf::49                     0                       # What write queue length does an incoming req see
system.mem_ctrls0.wrQLenPdf::50                     0                       # What write queue length does an incoming req see
system.mem_ctrls0.wrQLenPdf::51                     0                       # What write queue length does an incoming req see
system.mem_ctrls0.wrQLenPdf::52                     0                       # What write queue length does an incoming req see
system.mem_ctrls0.wrQLenPdf::53                     0                       # What write queue length does an incoming req see
system.mem_ctrls0.wrQLenPdf::54                     0                       # What write queue length does an incoming req see
system.mem_ctrls0.wrQLenPdf::55                     0                       # What write queue length does an incoming req see
system.mem_ctrls0.wrQLenPdf::56                     0                       # What write queue length does an incoming req see
system.mem_ctrls0.wrQLenPdf::57                     0                       # What write queue length does an incoming req see
system.mem_ctrls0.wrQLenPdf::58                     0                       # What write queue length does an incoming req see
system.mem_ctrls0.wrQLenPdf::59                     0                       # What write queue length does an incoming req see
system.mem_ctrls0.wrQLenPdf::60                     0                       # What write queue length does an incoming req see
system.mem_ctrls0.wrQLenPdf::61                     0                       # What write queue length does an incoming req see
system.mem_ctrls0.wrQLenPdf::62                     0                       # What write queue length does an incoming req see
system.mem_ctrls0.wrQLenPdf::63                     0                       # What write queue length does an incoming req see
system.mem_ctrls0.bytesPerActivate::samples        47380                       # Bytes accessed per row activation
system.mem_ctrls0.bytesPerActivate::mean   128.869903                       # Bytes accessed per row activation
system.mem_ctrls0.bytesPerActivate::gmean    94.503986                       # Bytes accessed per row activation
system.mem_ctrls0.bytesPerActivate::stdev   149.382219                       # Bytes accessed per row activation
system.mem_ctrls0.bytesPerActivate::0-127        32154     67.86%     67.86% # Bytes accessed per row activation
system.mem_ctrls0.bytesPerActivate::128-255         9298     19.62%     87.49% # Bytes accessed per row activation
system.mem_ctrls0.bytesPerActivate::256-383         2432      5.13%     92.62% # Bytes accessed per row activation
system.mem_ctrls0.bytesPerActivate::384-511         1459      3.08%     95.70% # Bytes accessed per row activation
system.mem_ctrls0.bytesPerActivate::512-639          804      1.70%     97.40% # Bytes accessed per row activation
system.mem_ctrls0.bytesPerActivate::640-767          544      1.15%     98.55% # Bytes accessed per row activation
system.mem_ctrls0.bytesPerActivate::768-895          247      0.52%     99.07% # Bytes accessed per row activation
system.mem_ctrls0.bytesPerActivate::896-1023          104      0.22%     99.29% # Bytes accessed per row activation
system.mem_ctrls0.bytesPerActivate::1024-1151          338      0.71%    100.00% # Bytes accessed per row activation
system.mem_ctrls0.bytesPerActivate::total        47380                       # Bytes accessed per row activation
system.mem_ctrls0.rdPerTurnAround::samples          620                       # Reads before turning the bus around for writes
system.mem_ctrls0.rdPerTurnAround::mean    136.108065                       # Reads before turning the bus around for writes
system.mem_ctrls0.rdPerTurnAround::gmean    79.621778                       # Reads before turning the bus around for writes
system.mem_ctrls0.rdPerTurnAround::stdev  1093.449837                       # Reads before turning the bus around for writes
system.mem_ctrls0.rdPerTurnAround::0-1023          619     99.84%     99.84% # Reads before turning the bus around for writes
system.mem_ctrls0.rdPerTurnAround::26624-27647            1      0.16%    100.00% # Reads before turning the bus around for writes
system.mem_ctrls0.rdPerTurnAround::total          620                       # Reads before turning the bus around for writes
system.mem_ctrls0.wrPerTurnAround::samples          620                       # Writes before turning the bus around for reads
system.mem_ctrls0.wrPerTurnAround::mean     17.709677                       # Writes before turning the bus around for reads
system.mem_ctrls0.wrPerTurnAround::gmean    17.688149                       # Writes before turning the bus around for reads
system.mem_ctrls0.wrPerTurnAround::stdev     0.891299                       # Writes before turning the bus around for reads
system.mem_ctrls0.wrPerTurnAround::16              98     15.81%     15.81% # Writes before turning the bus around for reads
system.mem_ctrls0.wrPerTurnAround::17              13      2.10%     17.90% # Writes before turning the bus around for reads
system.mem_ctrls0.wrPerTurnAround::18             490     79.03%     96.94% # Writes before turning the bus around for reads
system.mem_ctrls0.wrPerTurnAround::19              18      2.90%     99.84% # Writes before turning the bus around for reads
system.mem_ctrls0.wrPerTurnAround::29               1      0.16%    100.00% # Writes before turning the bus around for reads
system.mem_ctrls0.wrPerTurnAround::total          620                       # Writes before turning the bus around for reads
system.mem_ctrls0.totQLat                  3691078141                       # Total ticks spent queuing
system.mem_ctrls0.totMemAccLat             5274028141                       # Total ticks spent from burst creation until serviced by the DRAM
system.mem_ctrls0.totBusLat                 422120000                       # Total ticks spent in databus transfers
system.mem_ctrls0.avgQLat                    43720.72                       # Average queueing delay per DRAM burst
system.mem_ctrls0.avgBusLat                   5000.00                       # Average bus latency per DRAM burst
system.mem_ctrls0.avgMemAccLat               62470.72                       # Average memory access latency per DRAM burst
system.mem_ctrls0.avgRdBW                        4.95                       # Average DRAM read bandwidth in MiByte/s
system.mem_ctrls0.avgWrBW                        0.64                       # Average achieved write bandwidth in MiByte/s
system.mem_ctrls0.avgRdBWSys                     4.96                       # Average system read bandwidth in MiByte/s
system.mem_ctrls0.avgWrBWSys                     0.65                       # Average system write bandwidth in MiByte/s
system.mem_ctrls0.peakBW                     12800.00                       # Theoretical peak bandwidth in MiByte/s
system.mem_ctrls0.busUtil                        0.04                       # Data bus utilization in percentage
system.mem_ctrls0.busUtilRead                    0.04                       # Data bus utilization in percentage for reads
system.mem_ctrls0.busUtilWrite                   0.01                       # Data bus utilization in percentage for writes
system.mem_ctrls0.avgRdQLen                      1.01                       # Average read queue length when enqueuing
system.mem_ctrls0.avgWrQLen                     17.95                       # Average write queue length when enqueuing
system.mem_ctrls0.readRowHits                   46513                       # Number of row buffer hits during reads
system.mem_ctrls0.writeRowHits                   1511                       # Number of row buffer hits during writes
system.mem_ctrls0.readRowHitRate                55.09                       # Row buffer hit rate for reads
system.mem_ctrls0.writeRowHitRate               13.73                       # Row buffer hit rate for writes
system.mem_ctrls0.avgGap                  11423559.14                       # Average gap between requests
system.mem_ctrls0.pageHitRate                   50.33                       # Row buffer hit rate, read and write combined
system.mem_ctrls0_0.actEnergy               171509940                       # Energy for activate commands per rank (pJ)
system.mem_ctrls0_0.preEnergy                91159695                       # Energy for precharge commands per rank (pJ)
system.mem_ctrls0_0.readEnergy              300715380                       # Energy for read commands per rank (pJ)
system.mem_ctrls0_0.writeEnergy              28391580                       # Energy for write commands per rank (pJ)
system.mem_ctrls0_0.refreshEnergy        7078808880.000002                       # Energy for refresh commands per rank (pJ)
system.mem_ctrls0_0.actBackEnergy          2368159050                       # Energy for active background per rank (pJ)
system.mem_ctrls0_0.preBackEnergy           339191520                       # Energy for precharge background per rank (pJ)
system.mem_ctrls0_0.actPowerDownEnergy    20117366820                       # Energy for active power-down per rank (pJ)
system.mem_ctrls0_0.prePowerDownEnergy     9336216000                       # Energy for precharge power-down per rank (pJ)
system.mem_ctrls0_0.selfRefreshEnergy    245025290145                       # Energy for self refresh per rank (pJ)
system.mem_ctrls0_0.totalEnergy          284858880750                       # Total energy per rank (pJ)
system.mem_ctrls0_0.averagePower           261.188003                       # Core power per rank (mW)
system.mem_ctrls0_0.totalIdleTime        1084541548837                       # Total Idle time Per DRAM Rank
system.mem_ctrls0_0.memoryStateTime::IDLE    606079775                       # Time in different power states
system.mem_ctrls0_0.memoryStateTime::REF   3007200000                       # Time in different power states
system.mem_ctrls0_0.memoryStateTime::SREF 1016116347617                       # Time in different power states
system.mem_ctrls0_0.memoryStateTime::PRE_PDN  24312868048                       # Time in different power states
system.mem_ctrls0_0.memoryStateTime::ACT   2468517005                       # Time in different power states
system.mem_ctrls0_0.memoryStateTime::ACT_PDN  44116726430                       # Time in different power states
system.mem_ctrls0_1.actEnergy               166783260                       # Energy for activate commands per rank (pJ)
system.mem_ctrls0_1.preEnergy                88647405                       # Energy for precharge commands per rank (pJ)
system.mem_ctrls0_1.readEnergy              302071980                       # Energy for read commands per rank (pJ)
system.mem_ctrls0_1.writeEnergy              28924020                       # Energy for write commands per rank (pJ)
system.mem_ctrls0_1.refreshEnergy        7148877840.000002                       # Energy for refresh commands per rank (pJ)
system.mem_ctrls0_1.actBackEnergy          2398646640                       # Energy for active background per rank (pJ)
system.mem_ctrls0_1.preBackEnergy           344050560                       # Energy for precharge background per rank (pJ)
system.mem_ctrls0_1.actPowerDownEnergy    20219420760                       # Energy for active power-down per rank (pJ)
system.mem_ctrls0_1.prePowerDownEnergy     9333579840                       # Energy for precharge power-down per rank (pJ)
system.mem_ctrls0_1.selfRefreshEnergy    244998727560                       # Energy for self refresh per rank (pJ)
system.mem_ctrls0_1.totalEnergy          285031591125                       # Total energy per rank (pJ)
system.mem_ctrls0_1.averagePower           261.346361                       # Core power per rank (mW)
system.mem_ctrls0_1.totalIdleTime        1084450682048                       # Total Idle time Per DRAM Rank
system.mem_ctrls0_1.memoryStateTime::IDLE    618168452                       # Time in different power states
system.mem_ctrls0_1.memoryStateTime::REF   3037332000                       # Time in different power states
system.mem_ctrls0_1.memoryStateTime::SREF 1015820392375                       # Time in different power states
system.mem_ctrls0_1.memoryStateTime::PRE_PDN  24306153106                       # Time in different power states
system.mem_ctrls0_1.memoryStateTime::ACT   2505096231                       # Time in different power states
system.mem_ctrls0_1.memoryStateTime::ACT_PDN  44340596711                       # Time in different power states
system.mem_ctrls1.pwrStateResidencyTicks::UNDEFINED 31102041899925                       # Cumulative time (in ticks) in various power states
system.mem_ctrls1.bytes_read::cpu.inst            192                       # Number of bytes read from this memory
system.mem_ctrls1.bytes_read::cpu.data            192                       # Number of bytes read from this memory
system.mem_ctrls1.bytes_read::switch_cpus.inst       136512                       # Number of bytes read from this memory
system.mem_ctrls1.bytes_read::switch_cpus.data      3617280                       # Number of bytes read from this memory
system.mem_ctrls1.bytes_read::switch_cpus_1.inst       107584                       # Number of bytes read from this memory
system.mem_ctrls1.bytes_read::switch_cpus_1.data      1551872                       # Number of bytes read from this memory
system.mem_ctrls1.bytes_read::total           5413632                       # Number of bytes read from this memory
system.mem_ctrls1.bytes_inst_read::cpu.inst          192                       # Number of instructions bytes read from this memory
system.mem_ctrls1.bytes_inst_read::switch_cpus.inst       136512                       # Number of instructions bytes read from this memory
system.mem_ctrls1.bytes_inst_read::switch_cpus_1.inst       107584                       # Number of instructions bytes read from this memory
system.mem_ctrls1.bytes_inst_read::total       244288                       # Number of instructions bytes read from this memory
system.mem_ctrls1.bytes_written::writebacks       700992                       # Number of bytes written to this memory
system.mem_ctrls1.bytes_written::total         700992                       # Number of bytes written to this memory
system.mem_ctrls1.num_reads::cpu.inst               3                       # Number of read requests responded to by this memory
system.mem_ctrls1.num_reads::cpu.data               3                       # Number of read requests responded to by this memory
system.mem_ctrls1.num_reads::switch_cpus.inst         2133                       # Number of read requests responded to by this memory
system.mem_ctrls1.num_reads::switch_cpus.data        56520                       # Number of read requests responded to by this memory
system.mem_ctrls1.num_reads::switch_cpus_1.inst         1681                       # Number of read requests responded to by this memory
system.mem_ctrls1.num_reads::switch_cpus_1.data        24248                       # Number of read requests responded to by this memory
system.mem_ctrls1.num_reads::total              84588                       # Number of read requests responded to by this memory
system.mem_ctrls1.num_writes::writebacks        10953                       # Number of write requests responded to by this memory
system.mem_ctrls1.num_writes::total             10953                       # Number of write requests responded to by this memory
system.mem_ctrls1.bw_read::cpu.inst               176                       # Total read bandwidth from this memory (bytes/s)
system.mem_ctrls1.bw_read::cpu.data               176                       # Total read bandwidth from this memory (bytes/s)
system.mem_ctrls1.bw_read::switch_cpus.inst       125168                       # Total read bandwidth from this memory (bytes/s)
system.mem_ctrls1.bw_read::switch_cpus.data      3316695                       # Total read bandwidth from this memory (bytes/s)
system.mem_ctrls1.bw_read::switch_cpus_1.inst        98644                       # Total read bandwidth from this memory (bytes/s)
system.mem_ctrls1.bw_read::switch_cpus_1.data      1422916                       # Total read bandwidth from this memory (bytes/s)
system.mem_ctrls1.bw_read::total              4963776                       # Total read bandwidth from this memory (bytes/s)
system.mem_ctrls1.bw_inst_read::cpu.inst          176                       # Instruction read bandwidth from this memory (bytes/s)
system.mem_ctrls1.bw_inst_read::switch_cpus.inst       125168                       # Instruction read bandwidth from this memory (bytes/s)
system.mem_ctrls1.bw_inst_read::switch_cpus_1.inst        98644                       # Instruction read bandwidth from this memory (bytes/s)
system.mem_ctrls1.bw_inst_read::total          223988                       # Instruction read bandwidth from this memory (bytes/s)
system.mem_ctrls1.bw_write::writebacks         642742                       # Write bandwidth from this memory (bytes/s)
system.mem_ctrls1.bw_write::total              642742                       # Write bandwidth from this memory (bytes/s)
system.mem_ctrls1.bw_total::writebacks         642742                       # Total bandwidth to/from this memory (bytes/s)
system.mem_ctrls1.bw_total::cpu.inst              176                       # Total bandwidth to/from this memory (bytes/s)
system.mem_ctrls1.bw_total::cpu.data              176                       # Total bandwidth to/from this memory (bytes/s)
system.mem_ctrls1.bw_total::switch_cpus.inst       125168                       # Total bandwidth to/from this memory (bytes/s)
system.mem_ctrls1.bw_total::switch_cpus.data      3316695                       # Total bandwidth to/from this memory (bytes/s)
system.mem_ctrls1.bw_total::switch_cpus_1.inst        98644                       # Total bandwidth to/from this memory (bytes/s)
system.mem_ctrls1.bw_total::switch_cpus_1.data      1422916                       # Total bandwidth to/from this memory (bytes/s)
system.mem_ctrls1.bw_total::total             5606518                       # Total bandwidth to/from this memory (bytes/s)
system.mem_ctrls1.readReqs                      84588                       # Number of read requests accepted
system.mem_ctrls1.writeReqs                     10953                       # Number of write requests accepted
system.mem_ctrls1.readBursts                    84588                       # Number of DRAM read bursts, including those serviced by the write queue
system.mem_ctrls1.writeBursts                   10953                       # Number of DRAM write bursts, including those merged in the write queue
system.mem_ctrls1.bytesReadDRAM               5409856                       # Total number of bytes read from DRAM
system.mem_ctrls1.bytesReadWrQ                   3776                       # Total number of bytes read from write queue
system.mem_ctrls1.bytesWritten                 699456                       # Total number of bytes written to DRAM
system.mem_ctrls1.bytesReadSys                5413632                       # Total read bytes from the system interface side
system.mem_ctrls1.bytesWrittenSys              700992                       # Total written bytes from the system interface side
system.mem_ctrls1.servicedByWrQ                    59                       # Number of DRAM read bursts serviced by the write queue
system.mem_ctrls1.mergedWrBursts                    0                       # Number of DRAM write bursts merged with an existing one
system.mem_ctrls1.neitherReadNorWriteReqs            0                       # Number of requests that are neither read nor write
system.mem_ctrls1.perBankRdBursts::0             5338                       # Per bank write bursts
system.mem_ctrls1.perBankRdBursts::1             5387                       # Per bank write bursts
system.mem_ctrls1.perBankRdBursts::2             5850                       # Per bank write bursts
system.mem_ctrls1.perBankRdBursts::3             5547                       # Per bank write bursts
system.mem_ctrls1.perBankRdBursts::4             5177                       # Per bank write bursts
system.mem_ctrls1.perBankRdBursts::5             5060                       # Per bank write bursts
system.mem_ctrls1.perBankRdBursts::6             4828                       # Per bank write bursts
system.mem_ctrls1.perBankRdBursts::7             4830                       # Per bank write bursts
system.mem_ctrls1.perBankRdBursts::8             5107                       # Per bank write bursts
system.mem_ctrls1.perBankRdBursts::9             4974                       # Per bank write bursts
system.mem_ctrls1.perBankRdBursts::10            4915                       # Per bank write bursts
system.mem_ctrls1.perBankRdBursts::11            4659                       # Per bank write bursts
system.mem_ctrls1.perBankRdBursts::12            5963                       # Per bank write bursts
system.mem_ctrls1.perBankRdBursts::13            5569                       # Per bank write bursts
system.mem_ctrls1.perBankRdBursts::14            5557                       # Per bank write bursts
system.mem_ctrls1.perBankRdBursts::15            5768                       # Per bank write bursts
system.mem_ctrls1.perBankWrBursts::0              706                       # Per bank write bursts
system.mem_ctrls1.perBankWrBursts::1              724                       # Per bank write bursts
system.mem_ctrls1.perBankWrBursts::2              716                       # Per bank write bursts
system.mem_ctrls1.perBankWrBursts::3              753                       # Per bank write bursts
system.mem_ctrls1.perBankWrBursts::4              716                       # Per bank write bursts
system.mem_ctrls1.perBankWrBursts::5              610                       # Per bank write bursts
system.mem_ctrls1.perBankWrBursts::6              506                       # Per bank write bursts
system.mem_ctrls1.perBankWrBursts::7              651                       # Per bank write bursts
system.mem_ctrls1.perBankWrBursts::8              703                       # Per bank write bursts
system.mem_ctrls1.perBankWrBursts::9              493                       # Per bank write bursts
system.mem_ctrls1.perBankWrBursts::10             579                       # Per bank write bursts
system.mem_ctrls1.perBankWrBursts::11             594                       # Per bank write bursts
system.mem_ctrls1.perBankWrBursts::12             825                       # Per bank write bursts
system.mem_ctrls1.perBankWrBursts::13             796                       # Per bank write bursts
system.mem_ctrls1.perBankWrBursts::14             802                       # Per bank write bursts
system.mem_ctrls1.perBankWrBursts::15             755                       # Per bank write bursts
system.mem_ctrls1.numRdRetry                        0                       # Number of times read queue was full causing retry
system.mem_ctrls1.numWrRetry                        0                       # Number of times write queue was full causing retry
system.mem_ctrls1.totGap                 1090625687928                       # Total gap between requests
system.mem_ctrls1.readPktSize::0                    0                       # Read request sizes (log2)
system.mem_ctrls1.readPktSize::1                    0                       # Read request sizes (log2)
system.mem_ctrls1.readPktSize::2                    0                       # Read request sizes (log2)
system.mem_ctrls1.readPktSize::3                    0                       # Read request sizes (log2)
system.mem_ctrls1.readPktSize::4                    0                       # Read request sizes (log2)
system.mem_ctrls1.readPktSize::5                    0                       # Read request sizes (log2)
system.mem_ctrls1.readPktSize::6                84588                       # Read request sizes (log2)
system.mem_ctrls1.writePktSize::0                   0                       # Write request sizes (log2)
system.mem_ctrls1.writePktSize::1                   0                       # Write request sizes (log2)
system.mem_ctrls1.writePktSize::2                   0                       # Write request sizes (log2)
system.mem_ctrls1.writePktSize::3                   0                       # Write request sizes (log2)
system.mem_ctrls1.writePktSize::4                   0                       # Write request sizes (log2)
system.mem_ctrls1.writePktSize::5                   0                       # Write request sizes (log2)
system.mem_ctrls1.writePktSize::6               10953                       # Write request sizes (log2)
system.mem_ctrls1.rdQLenPdf::0                  82350                       # What read queue length does an incoming req see
system.mem_ctrls1.rdQLenPdf::1                   2101                       # What read queue length does an incoming req see
system.mem_ctrls1.rdQLenPdf::2                     69                       # What read queue length does an incoming req see
system.mem_ctrls1.rdQLenPdf::3                      9                       # What read queue length does an incoming req see
system.mem_ctrls1.rdQLenPdf::4                      0                       # What read queue length does an incoming req see
system.mem_ctrls1.rdQLenPdf::5                      0                       # What read queue length does an incoming req see
system.mem_ctrls1.rdQLenPdf::6                      0                       # What read queue length does an incoming req see
system.mem_ctrls1.rdQLenPdf::7                      0                       # What read queue length does an incoming req see
system.mem_ctrls1.rdQLenPdf::8                      0                       # What read queue length does an incoming req see
system.mem_ctrls1.rdQLenPdf::9                      0                       # What read queue length does an incoming req see
system.mem_ctrls1.rdQLenPdf::10                     0                       # What read queue length does an incoming req see
system.mem_ctrls1.rdQLenPdf::11                     0                       # What read queue length does an incoming req see
system.mem_ctrls1.rdQLenPdf::12                     0                       # What read queue length does an incoming req see
system.mem_ctrls1.rdQLenPdf::13                     0                       # What read queue length does an incoming req see
system.mem_ctrls1.rdQLenPdf::14                     0                       # What read queue length does an incoming req see
system.mem_ctrls1.rdQLenPdf::15                     0                       # What read queue length does an incoming req see
system.mem_ctrls1.rdQLenPdf::16                     0                       # What read queue length does an incoming req see
system.mem_ctrls1.rdQLenPdf::17                     0                       # What read queue length does an incoming req see
system.mem_ctrls1.rdQLenPdf::18                     0                       # What read queue length does an incoming req see
system.mem_ctrls1.rdQLenPdf::19                     0                       # What read queue length does an incoming req see
system.mem_ctrls1.rdQLenPdf::20                     0                       # What read queue length does an incoming req see
system.mem_ctrls1.rdQLenPdf::21                     0                       # What read queue length does an incoming req see
system.mem_ctrls1.rdQLenPdf::22                     0                       # What read queue length does an incoming req see
system.mem_ctrls1.rdQLenPdf::23                     0                       # What read queue length does an incoming req see
system.mem_ctrls1.rdQLenPdf::24                     0                       # What read queue length does an incoming req see
system.mem_ctrls1.rdQLenPdf::25                     0                       # What read queue length does an incoming req see
system.mem_ctrls1.rdQLenPdf::26                     0                       # What read queue length does an incoming req see
system.mem_ctrls1.rdQLenPdf::27                     0                       # What read queue length does an incoming req see
system.mem_ctrls1.rdQLenPdf::28                     0                       # What read queue length does an incoming req see
system.mem_ctrls1.rdQLenPdf::29                     0                       # What read queue length does an incoming req see
system.mem_ctrls1.rdQLenPdf::30                     0                       # What read queue length does an incoming req see
system.mem_ctrls1.rdQLenPdf::31                     0                       # What read queue length does an incoming req see
system.mem_ctrls1.wrQLenPdf::0                      2                       # What write queue length does an incoming req see
system.mem_ctrls1.wrQLenPdf::1                      2                       # What write queue length does an incoming req see
system.mem_ctrls1.wrQLenPdf::2                      2                       # What write queue length does an incoming req see
system.mem_ctrls1.wrQLenPdf::3                      2                       # What write queue length does an incoming req see
system.mem_ctrls1.wrQLenPdf::4                      2                       # What write queue length does an incoming req see
system.mem_ctrls1.wrQLenPdf::5                      2                       # What write queue length does an incoming req see
system.mem_ctrls1.wrQLenPdf::6                      2                       # What write queue length does an incoming req see
system.mem_ctrls1.wrQLenPdf::7                      2                       # What write queue length does an incoming req see
system.mem_ctrls1.wrQLenPdf::8                      2                       # What write queue length does an incoming req see
system.mem_ctrls1.wrQLenPdf::9                      2                       # What write queue length does an incoming req see
system.mem_ctrls1.wrQLenPdf::10                     2                       # What write queue length does an incoming req see
system.mem_ctrls1.wrQLenPdf::11                     2                       # What write queue length does an incoming req see
system.mem_ctrls1.wrQLenPdf::12                     2                       # What write queue length does an incoming req see
system.mem_ctrls1.wrQLenPdf::13                     2                       # What write queue length does an incoming req see
system.mem_ctrls1.wrQLenPdf::14                     2                       # What write queue length does an incoming req see
system.mem_ctrls1.wrQLenPdf::15                   502                       # What write queue length does an incoming req see
system.mem_ctrls1.wrQLenPdf::16                   513                       # What write queue length does an incoming req see
system.mem_ctrls1.wrQLenPdf::17                   616                       # What write queue length does an incoming req see
system.mem_ctrls1.wrQLenPdf::18                   620                       # What write queue length does an incoming req see
system.mem_ctrls1.wrQLenPdf::19                   620                       # What write queue length does an incoming req see
system.mem_ctrls1.wrQLenPdf::20                   621                       # What write queue length does an incoming req see
system.mem_ctrls1.wrQLenPdf::21                   621                       # What write queue length does an incoming req see
system.mem_ctrls1.wrQLenPdf::22                   619                       # What write queue length does an incoming req see
system.mem_ctrls1.wrQLenPdf::23                   623                       # What write queue length does an incoming req see
system.mem_ctrls1.wrQLenPdf::24                   619                       # What write queue length does an incoming req see
system.mem_ctrls1.wrQLenPdf::25                   620                       # What write queue length does an incoming req see
system.mem_ctrls1.wrQLenPdf::26                   618                       # What write queue length does an incoming req see
system.mem_ctrls1.wrQLenPdf::27                   617                       # What write queue length does an incoming req see
system.mem_ctrls1.wrQLenPdf::28                   618                       # What write queue length does an incoming req see
system.mem_ctrls1.wrQLenPdf::29                   619                       # What write queue length does an incoming req see
system.mem_ctrls1.wrQLenPdf::30                   622                       # What write queue length does an incoming req see
system.mem_ctrls1.wrQLenPdf::31                   617                       # What write queue length does an incoming req see
system.mem_ctrls1.wrQLenPdf::32                   617                       # What write queue length does an incoming req see
system.mem_ctrls1.wrQLenPdf::33                     1                       # What write queue length does an incoming req see
system.mem_ctrls1.wrQLenPdf::34                     0                       # What write queue length does an incoming req see
system.mem_ctrls1.wrQLenPdf::35                     0                       # What write queue length does an incoming req see
system.mem_ctrls1.wrQLenPdf::36                     0                       # What write queue length does an incoming req see
system.mem_ctrls1.wrQLenPdf::37                     0                       # What write queue length does an incoming req see
system.mem_ctrls1.wrQLenPdf::38                     0                       # What write queue length does an incoming req see
system.mem_ctrls1.wrQLenPdf::39                     0                       # What write queue length does an incoming req see
system.mem_ctrls1.wrQLenPdf::40                     0                       # What write queue length does an incoming req see
system.mem_ctrls1.wrQLenPdf::41                     0                       # What write queue length does an incoming req see
system.mem_ctrls1.wrQLenPdf::42                     0                       # What write queue length does an incoming req see
system.mem_ctrls1.wrQLenPdf::43                     0                       # What write queue length does an incoming req see
system.mem_ctrls1.wrQLenPdf::44                     0                       # What write queue length does an incoming req see
system.mem_ctrls1.wrQLenPdf::45                     0                       # What write queue length does an incoming req see
system.mem_ctrls1.wrQLenPdf::46                     0                       # What write queue length does an incoming req see
system.mem_ctrls1.wrQLenPdf::47                     0                       # What write queue length does an incoming req see
system.mem_ctrls1.wrQLenPdf::48                     0                       # What write queue length does an incoming req see
system.mem_ctrls1.wrQLenPdf::49                     0                       # What write queue length does an incoming req see
system.mem_ctrls1.wrQLenPdf::50                     0                       # What write queue length does an incoming req see
system.mem_ctrls1.wrQLenPdf::51                     0                       # What write queue length does an incoming req see
system.mem_ctrls1.wrQLenPdf::52                     0                       # What write queue length does an incoming req see
system.mem_ctrls1.wrQLenPdf::53                     0                       # What write queue length does an incoming req see
system.mem_ctrls1.wrQLenPdf::54                     0                       # What write queue length does an incoming req see
system.mem_ctrls1.wrQLenPdf::55                     0                       # What write queue length does an incoming req see
system.mem_ctrls1.wrQLenPdf::56                     0                       # What write queue length does an incoming req see
system.mem_ctrls1.wrQLenPdf::57                     0                       # What write queue length does an incoming req see
system.mem_ctrls1.wrQLenPdf::58                     0                       # What write queue length does an incoming req see
system.mem_ctrls1.wrQLenPdf::59                     0                       # What write queue length does an incoming req see
system.mem_ctrls1.wrQLenPdf::60                     0                       # What write queue length does an incoming req see
system.mem_ctrls1.wrQLenPdf::61                     0                       # What write queue length does an incoming req see
system.mem_ctrls1.wrQLenPdf::62                     0                       # What write queue length does an incoming req see
system.mem_ctrls1.wrQLenPdf::63                     0                       # What write queue length does an incoming req see
system.mem_ctrls1.bytesPerActivate::samples        47401                       # Bytes accessed per row activation
system.mem_ctrls1.bytesPerActivate::mean   128.884370                       # Bytes accessed per row activation
system.mem_ctrls1.bytesPerActivate::gmean    94.485823                       # Bytes accessed per row activation
system.mem_ctrls1.bytesPerActivate::stdev   149.436092                       # Bytes accessed per row activation
system.mem_ctrls1.bytesPerActivate::0-127        32174     67.88%     67.88% # Bytes accessed per row activation
system.mem_ctrls1.bytesPerActivate::128-255         9318     19.66%     87.53% # Bytes accessed per row activation
system.mem_ctrls1.bytesPerActivate::256-383         2402      5.07%     92.60% # Bytes accessed per row activation
system.mem_ctrls1.bytesPerActivate::384-511         1432      3.02%     95.62% # Bytes accessed per row activation
system.mem_ctrls1.bytesPerActivate::512-639          843      1.78%     97.40% # Bytes accessed per row activation
system.mem_ctrls1.bytesPerActivate::640-767          531      1.12%     98.52% # Bytes accessed per row activation
system.mem_ctrls1.bytesPerActivate::768-895          261      0.55%     99.07% # Bytes accessed per row activation
system.mem_ctrls1.bytesPerActivate::896-1023          122      0.26%     99.33% # Bytes accessed per row activation
system.mem_ctrls1.bytesPerActivate::1024-1151          318      0.67%    100.00% # Bytes accessed per row activation
system.mem_ctrls1.bytesPerActivate::total        47401                       # Bytes accessed per row activation
system.mem_ctrls1.rdPerTurnAround::samples          618                       # Reads before turning the bus around for writes
system.mem_ctrls1.rdPerTurnAround::mean    136.713592                       # Reads before turning the bus around for writes
system.mem_ctrls1.rdPerTurnAround::stdev  1083.680563                       # Reads before turning the bus around for writes
system.mem_ctrls1.rdPerTurnAround::0-1023          616     99.68%     99.68% # Reads before turning the bus around for writes
system.mem_ctrls1.rdPerTurnAround::1024-2047            1      0.16%     99.84% # Reads before turning the bus around for writes
system.mem_ctrls1.rdPerTurnAround::26624-27647            1      0.16%    100.00% # Reads before turning the bus around for writes
system.mem_ctrls1.rdPerTurnAround::total          618                       # Reads before turning the bus around for writes
system.mem_ctrls1.wrPerTurnAround::samples          618                       # Writes before turning the bus around for reads
system.mem_ctrls1.wrPerTurnAround::mean     17.684466                       # Writes before turning the bus around for reads
system.mem_ctrls1.wrPerTurnAround::gmean    17.662972                       # Writes before turning the bus around for reads
system.mem_ctrls1.wrPerTurnAround::stdev     0.876000                       # Writes before turning the bus around for reads
system.mem_ctrls1.wrPerTurnAround::16             106     17.15%     17.15% # Writes before turning the bus around for reads
system.mem_ctrls1.wrPerTurnAround::17              11      1.78%     18.93% # Writes before turning the bus around for reads
system.mem_ctrls1.wrPerTurnAround::18             481     77.83%     96.76% # Writes before turning the bus around for reads
system.mem_ctrls1.wrPerTurnAround::19              19      3.07%     99.84% # Writes before turning the bus around for reads
system.mem_ctrls1.wrPerTurnAround::27               1      0.16%    100.00% # Writes before turning the bus around for reads
system.mem_ctrls1.wrPerTurnAround::total          618                       # Writes before turning the bus around for reads
system.mem_ctrls1.totQLat                  3717167805                       # Total ticks spent queuing
system.mem_ctrls1.totMemAccLat             5302086555                       # Total ticks spent from burst creation until serviced by the DRAM
system.mem_ctrls1.totBusLat                 422645000                       # Total ticks spent in databus transfers
system.mem_ctrls1.avgQLat                    43975.06                       # Average queueing delay per DRAM burst
system.mem_ctrls1.avgBusLat                   5000.00                       # Average bus latency per DRAM burst
system.mem_ctrls1.avgMemAccLat               62725.06                       # Average memory access latency per DRAM burst
system.mem_ctrls1.avgRdBW                        4.96                       # Average DRAM read bandwidth in MiByte/s
system.mem_ctrls1.avgWrBW                        0.64                       # Average achieved write bandwidth in MiByte/s
system.mem_ctrls1.avgRdBWSys                     4.96                       # Average system read bandwidth in MiByte/s
system.mem_ctrls1.avgWrBWSys                     0.64                       # Average system write bandwidth in MiByte/s
system.mem_ctrls1.peakBW                     12800.00                       # Theoretical peak bandwidth in MiByte/s
system.mem_ctrls1.busUtil                        0.04                       # Data bus utilization in percentage
system.mem_ctrls1.busUtilRead                    0.04                       # Data bus utilization in percentage for reads
system.mem_ctrls1.busUtilWrite                   0.01                       # Data bus utilization in percentage for writes
system.mem_ctrls1.avgRdQLen                      1.00                       # Average read queue length when enqueuing
system.mem_ctrls1.avgWrQLen                     17.18                       # Average write queue length when enqueuing
system.mem_ctrls1.readRowHits                   46440                       # Number of row buffer hits during reads
system.mem_ctrls1.writeRowHits                   1616                       # Number of row buffer hits during writes
system.mem_ctrls1.readRowHitRate                54.94                       # Row buffer hit rate for reads
system.mem_ctrls1.writeRowHitRate               14.75                       # Row buffer hit rate for writes
system.mem_ctrls1.avgGap                  11415263.48                       # Average gap between requests
system.mem_ctrls1.pageHitRate                   50.33                       # Row buffer hit rate, read and write combined
system.mem_ctrls1_0.actEnergy               170617440                       # Energy for activate commands per rank (pJ)
system.mem_ctrls1_0.preEnergy                90681525                       # Energy for precharge commands per rank (pJ)
system.mem_ctrls1_0.readEnergy              300001380                       # Energy for read commands per rank (pJ)
system.mem_ctrls1_0.writeEnergy              28094040                       # Energy for write commands per rank (pJ)
system.mem_ctrls1_0.refreshEnergy        7106467680.000002                       # Energy for refresh commands per rank (pJ)
system.mem_ctrls1_0.actBackEnergy          2361165720                       # Energy for active background per rank (pJ)
system.mem_ctrls1_0.preBackEnergy           341025600                       # Energy for precharge background per rank (pJ)
system.mem_ctrls1_0.actPowerDownEnergy    20168760300                       # Energy for active power-down per rank (pJ)
system.mem_ctrls1_0.prePowerDownEnergy     9302645760                       # Energy for precharge power-down per rank (pJ)
system.mem_ctrls1_0.selfRefreshEnergy    245047101375                       # Energy for self refresh per rank (pJ)
system.mem_ctrls1_0.totalEnergy          284918602410                       # Total energy per rank (pJ)
system.mem_ctrls1_0.averagePower           261.242762                       # Core power per rank (mW)
system.mem_ctrls1_0.totalIdleTime        1084555320919                       # Total Idle time Per DRAM Rank
system.mem_ctrls1_0.memoryStateTime::IDLE    610025497                       # Time in different power states
system.mem_ctrls1_0.memoryStateTime::REF   3019158000                       # Time in different power states
system.mem_ctrls1_0.memoryStateTime::SREF 1016101761248                       # Time in different power states
system.mem_ctrls1_0.memoryStateTime::PRE_PDN  24225791419                       # Time in different power states
system.mem_ctrls1_0.memoryStateTime::ACT   2441397503                       # Time in different power states
system.mem_ctrls1_0.memoryStateTime::ACT_PDN  44229605208                       # Time in different power states
system.mem_ctrls1_1.actEnergy               167832840                       # Energy for activate commands per rank (pJ)
system.mem_ctrls1_1.preEnergy                89205270                       # Energy for precharge commands per rank (pJ)
system.mem_ctrls1_1.readEnergy              303535680                       # Energy for read commands per rank (pJ)
system.mem_ctrls1_1.writeEnergy              28955340                       # Energy for write commands per rank (pJ)
system.mem_ctrls1_1.refreshEnergy        7143346080.000002                       # Energy for refresh commands per rank (pJ)
system.mem_ctrls1_1.actBackEnergy          2404425870                       # Energy for active background per rank (pJ)
system.mem_ctrls1_1.preBackEnergy           344644320                       # Energy for precharge background per rank (pJ)
system.mem_ctrls1_1.actPowerDownEnergy    20235157320                       # Energy for active power-down per rank (pJ)
system.mem_ctrls1_1.prePowerDownEnergy     9251095680                       # Energy for precharge power-down per rank (pJ)
system.mem_ctrls1_1.selfRefreshEnergy    245046172950                       # Energy for self refresh per rank (pJ)
system.mem_ctrls1_1.totalEnergy          285017008770                       # Total energy per rank (pJ)
system.mem_ctrls1_1.averagePower           261.332991                       # Core power per rank (mW)
system.mem_ctrls1_1.totalIdleTime        1084443734166                       # Total Idle time Per DRAM Rank
system.mem_ctrls1_1.memoryStateTime::IDLE    621174380                       # Time in different power states
system.mem_ctrls1_1.memoryStateTime::REF   3035028000                       # Time in different power states
system.mem_ctrls1_1.memoryStateTime::SREF 1015984721875                       # Time in different power states
system.mem_ctrls1_1.memoryStateTime::PRE_PDN  24091315341                       # Time in different power states
system.mem_ctrls1_1.memoryStateTime::ACT   2519871735                       # Time in different power states
system.mem_ctrls1_1.memoryStateTime::ACT_PDN  44375627544                       # Time in different power states
system.pwrStateResidencyTicks::UNDEFINED 31102041899925                       # Cumulative time (in ticks) in various power states
system.cpu.branchPred.lookups                       6                       # Number of BP lookups
system.cpu.branchPred.condPredicted                 3                       # Number of conditional branches predicted
system.cpu.branchPred.condIncorrect                 3                       # Number of conditional branches incorrect
system.cpu.branchPred.BTBLookups                    3                       # Number of BTB lookups
system.cpu.branchPred.BTBHits                       0                       # Number of BTB hits
system.cpu.branchPred.BTBCorrect                    0                       # Number of correct BTB predictions (this stat may not work properly.
system.cpu.branchPred.BTBHitPct              0.000000                       # BTB Hit Percentage
system.cpu.branchPred.usedRAS                       0                       # Number of times the RAS was used to get a target.
system.cpu.branchPred.RASInCorrect                  0                       # Number of incorrect RAS predictions.
system.cpu.branchPred.indirectLookups               1                       # Number of indirect predictor lookups.
system.cpu.branchPred.indirectHits                  0                       # Number of indirect target hits.
system.cpu.branchPred.indirectMisses                1                       # Number of indirect misses.
system.cpu.branchPredindirectMispredicted            1                       # Number of mispredicted indirect branches.
system.cpu_voltage_domain.voltage                   1                       # Voltage in Volts
system.cpu_clk_domain.clock                       333                       # Clock period in ticks
system.cpu.dtb.fetch_hits                           0                       # ITB hits
system.cpu.dtb.fetch_misses                         0                       # ITB misses
system.cpu.dtb.fetch_acv                            0                       # ITB acv
system.cpu.dtb.fetch_accesses                       0                       # ITB accesses
system.cpu.dtb.read_hits                            5                       # DTB read hits
system.cpu.dtb.read_misses                          0                       # DTB read misses
system.cpu.dtb.read_acv                             0                       # DTB read access violations
system.cpu.dtb.read_accesses                        5                       # DTB read accesses
system.cpu.dtb.write_hits                           0                       # DTB write hits
system.cpu.dtb.write_misses                         0                       # DTB write misses
system.cpu.dtb.write_acv                            0                       # DTB write access violations
system.cpu.dtb.write_accesses                       0                       # DTB write accesses
system.cpu.dtb.data_hits                            5                       # DTB hits
system.cpu.dtb.data_misses                          0                       # DTB misses
system.cpu.dtb.data_acv                             0                       # DTB access violations
system.cpu.dtb.data_accesses                        5                       # DTB accesses
system.cpu.itb.fetch_hits                           7                       # ITB hits
system.cpu.itb.fetch_misses                         0                       # ITB misses
system.cpu.itb.fetch_acv                            0                       # ITB acv
system.cpu.itb.fetch_accesses                       7                       # ITB accesses
system.cpu.itb.read_hits                            0                       # DTB read hits
system.cpu.itb.read_misses                          0                       # DTB read misses
system.cpu.itb.read_acv                             0                       # DTB read access violations
system.cpu.itb.read_accesses                        0                       # DTB read accesses
system.cpu.itb.write_hits                           0                       # DTB write hits
system.cpu.itb.write_misses                         0                       # DTB write misses
system.cpu.itb.write_acv                            0                       # DTB write access violations
system.cpu.itb.write_accesses                       0                       # DTB write accesses
system.cpu.itb.data_hits                            0                       # DTB hits
system.cpu.itb.data_misses                          0                       # DTB misses
system.cpu.itb.data_acv                             0                       # DTB access violations
system.cpu.itb.data_accesses                        0                       # DTB accesses
system.cpu.workload.num_syscalls                    9                       # Number of system calls
system.cpu.pwrStateResidencyTicks::ON    1090627738875                       # Cumulative time (in ticks) in various power states
system.cpu.numCycles                             1010                       # number of cpu cycles simulated
system.cpu.numWorkItemsStarted                      0                       # number of work items this cpu started
system.cpu.numWorkItemsCompleted                    0                       # number of work items this cpu completed
system.cpu.fetch.icacheStallCycles                 50                       # Number of cycles fetch is stalled on an Icache miss
system.cpu.fetch.Insts                             34                       # Number of instructions fetch has processed
system.cpu.fetch.Branches                           6                       # Number of branches that fetch encountered
system.cpu.fetch.Cycles                             5                       # Number of cycles fetch has run and was not squashing or blocked
system.cpu.fetch.SquashCycles                       9                       # Number of cycles fetch has spent squashing
system.cpu.fetch.PendingDrainCycles                 6                       # Number of cycles fetch has spent waiting on pipes to drain
system.cpu.fetch.CacheLines                         7                       # Number of cache lines fetched
system.cpu.fetch.IcacheSquashes                     4                       # Number of outstanding Icache misses that were squashed
system.cpu.fetch.rateDist::samples                 65                       # Number of instructions fetched each cycle (Total)
system.cpu.fetch.rateDist::mean              0.523077                       # Number of instructions fetched each cycle (Total)
system.cpu.fetch.rateDist::stdev             1.880057                       # Number of instructions fetched each cycle (Total)
system.cpu.fetch.rateDist::underflows               0      0.00%      0.00% # Number of instructions fetched each cycle (Total)
system.cpu.fetch.rateDist::0                       60     92.31%     92.31% # Number of instructions fetched each cycle (Total)
system.cpu.fetch.rateDist::1                        0      0.00%     92.31% # Number of instructions fetched each cycle (Total)
system.cpu.fetch.rateDist::2                        0      0.00%     92.31% # Number of instructions fetched each cycle (Total)
system.cpu.fetch.rateDist::3                        0      0.00%     92.31% # Number of instructions fetched each cycle (Total)
system.cpu.fetch.rateDist::4                        1      1.54%     93.85% # Number of instructions fetched each cycle (Total)
system.cpu.fetch.rateDist::5                        0      0.00%     93.85% # Number of instructions fetched each cycle (Total)
system.cpu.fetch.rateDist::6                        1      1.54%     95.38% # Number of instructions fetched each cycle (Total)
system.cpu.fetch.rateDist::7                        0      0.00%     95.38% # Number of instructions fetched each cycle (Total)
system.cpu.fetch.rateDist::8                        3      4.62%    100.00% # Number of instructions fetched each cycle (Total)
system.cpu.fetch.rateDist::overflows                0      0.00%    100.00% # Number of instructions fetched each cycle (Total)
system.cpu.fetch.rateDist::min_value                0                       # Number of instructions fetched each cycle (Total)
system.cpu.fetch.rateDist::max_value                8                       # Number of instructions fetched each cycle (Total)
system.cpu.fetch.rateDist::total                   65                       # Number of instructions fetched each cycle (Total)
system.cpu.fetch.branchRate                  0.005941                       # Number of branch fetches per cycle
system.cpu.fetch.rate                        0.033663                       # Number of inst fetches per cycle
[...]
system.switch_cpus_1.iq.int_inst_queue_wakeup_accesses    235753892                       # Number of integer instruction queue wakeup accesses
system.switch_cpus_1.iq.fp_inst_queue_reads       482015                       # Number of floating instruction queue reads
system.switch_cpus_1.iq.fp_inst_queue_writes       347969                       # Number of floating instruction queue writes
system.switch_cpus_1.iq.fp_inst_queue_wakeup_accesses       213106                       # Number of floating instruction queue wakeup accesses
system.switch_cpus_1.iq.int_alu_accesses    249244600                       # Number of integer alu accesses
system.switch_cpus_1.iq.fp_alu_accesses        247568                       # Number of floating point alu accesses
system.switch_cpus_1.iew.lsq.thread0.forwLoads      8572108                       # Number of loads that had data forwarded from stores
system.switch_cpus_1.iew.lsq.thread0.invAddrLoads            0                       # Number of loads ignored due to an invalid address
system.switch_cpus_1.iew.lsq.thread0.squashedLoads     24823079                       # Number of loads squashed
system.switch_cpus_1.iew.lsq.thread0.ignoredResponses        42028                       # Number of memory responses ignored because the instruction is squashed
system.switch_cpus_1.iew.lsq.thread0.memOrderViolation        81839                       # Number of memory ordering violations
system.switch_cpus_1.iew.lsq.thread0.squashedStores     10647957                       # Number of stores squashed
system.switch_cpus_1.iew.lsq.thread0.invAddrSwpfs            0                       # Number of software prefetches ignored due to an invalid address
system.switch_cpus_1.iew.lsq.thread0.blockedLoads            0                       # Number of blocked loads due to partial load-store forwarding
system.switch_cpus_1.iew.lsq.thread0.rescheduledLoads           55                       # Number of loads that were rescheduled
system.switch_cpus_1.iew.lsq.thread0.cacheBlocked       158073                       # Number of times an access to memory failed due to the cache being blocked
system.switch_cpus_1.iew.iewIdleCycles              0                       # Number of cycles IEW is idle
system.switch_cpus_1.iew.iewSquashCycles      2084038                       # Number of cycles IEW is squashing
system.switch_cpus_1.iew.iewBlockCycles      20774696                       # Number of cycles IEW is blocking
system.switch_cpus_1.iew.iewUnblockCycles     15665789                       # Number of cycles IEW is unblocking
system.switch_cpus_1.iew.iewDispatchedInsts    281117640                       # Number of instructions dispatched to IQ
system.switch_cpus_1.iew.iewDispSquashedInsts       645272                       # Number of squashed instructions skipped by dispatch
system.switch_cpus_1.iew.iewDispLoadInsts     89930607                       # Number of dispatched load instructions
system.switch_cpus_1.iew.iewDispStoreInsts     38819918                       # Number of dispatched store instructions
system.switch_cpus_1.iew.iewDispNonSpecInsts        84737                       # Number of dispatched non-speculative instructions
system.switch_cpus_1.iew.iewIQFullEvents       353852                       # Number of times the IQ has become full, causing a stall
system.switch_cpus_1.iew.iewLSQFullEvents     15331762                       # Number of times the LSQ has become full, causing a stall
system.switch_cpus_1.iew.memOrderViolationEvents        81839                       # Number of memory order violations
system.switch_cpus_1.iew.predictedTakenIncorrect       937555                       # Number of branches that were predicted taken incorrectly
system.switch_cpus_1.iew.predictedNotTakenIncorrect       734618                       # Number of branches that were predicted not taken incorrectly
system.switch_cpus_1.iew.branchMispredicts      1672173                       # Number of branch mispredicts detected at execute
system.switch_cpus_1.iew.iewExecutedInsts    239334007                       # Number of executed instructions
system.switch_cpus_1.iew.iewExecLoadInsts     78344850                       # Number of load instructions executed
system.switch_cpus_1.iew.iewExecSquashedInsts      2925806                       # Number of squashed instructions skipped in execute
system.switch_cpus_1.iew.exec_swp                   0                       # number of swp insts executed
system.switch_cpus_1.iew.exec_nop             6963418                       # number of nop insts executed
system.switch_cpus_1.iew.exec_refs          112526988                       # number of memory reference insts executed
system.switch_cpus_1.iew.exec_branches       39873197                       # Number of branches executed
system.switch_cpus_1.iew.exec_stores         34182138                       # Number of stores executed
system.switch_cpus_1.iew.exec_rate           1.082040                       # Inst execution rate
system.switch_cpus_1.iew.wb_sent            237887958                       # cumulative count of insts sent to commit
system.switch_cpus_1.iew.wb_count           235966998                       # cumulative count of insts written-back
system.switch_cpus_1.iew.wb_producers       131553494                       # num instructions producing a value
system.switch_cpus_1.iew.wb_consumers       175144795                       # num instructions consuming a value
system.switch_cpus_1.iew.wb_rate             1.066817                       # insts written-back per cycle
system.switch_cpus_1.iew.wb_fanout           0.751113                       # average fanout of values written-back
system.switch_cpus_1.commit.commitSquashedInsts     68316886                       # The number of squashed insts skipped by commit
system.switch_cpus_1.commit.commitNonSpecStalls       131982                       # The number of times commit has been forced to stall to communicate backwards
system.switch_cpus_1.commit.branchMispredicts      1464357                       # The number of times a branch was mispredicted
system.switch_cpus_1.commit.committed_per_cycle::samples    188908535                       # Number of insts commited each cycle
system.switch_cpus_1.commit.committed_per_cycle::mean     1.083964                       # Number of insts commited each cycle
system.switch_cpus_1.commit.committed_per_cycle::stdev     2.192185                       # Number of insts commited each cycle
system.switch_cpus_1.commit.committed_per_cycle::underflows            0      0.00%      0.00% # Number of insts commited each cycle
system.switch_cpus_1.commit.committed_per_cycle::0    127530310     67.51%     67.51% # Number of insts commited each cycle
system.switch_cpus_1.commit.committed_per_cycle::1     25475679     13.49%     80.99% # Number of insts commited each cycle
system.switch_cpus_1.commit.committed_per_cycle::2      9026517      4.78%     85.77% # Number of insts commited each cycle
system.switch_cpus_1.commit.committed_per_cycle::3      4130475      2.19%     87.96% # Number of insts commited each cycle
system.switch_cpus_1.commit.committed_per_cycle::4      3884605      2.06%     90.02% # Number of insts commited each cycle
system.switch_cpus_1.commit.committed_per_cycle::5      3299713      1.75%     91.76% # Number of insts commited each cycle
system.switch_cpus_1.commit.committed_per_cycle::6      2814759      1.49%     93.25% # Number of insts commited each cycle
system.switch_cpus_1.commit.committed_per_cycle::7      2047448      1.08%     94.34% # Number of insts commited each cycle
system.switch_cpus_1.commit.committed_per_cycle::8     10699029      5.66%    100.00% # Number of insts commited each cycle
system.switch_cpus_1.commit.committed_per_cycle::overflows            0      0.00%    100.00% # Number of insts commited each cycle
system.switch_cpus_1.commit.committed_per_cycle::min_value            0                       # Number of insts commited each cycle
system.switch_cpus_1.commit.committed_per_cycle::max_value            8                       # Number of insts commited each cycle
system.switch_cpus_1.commit.committed_per_cycle::total    188908535                       # Number of insts commited each cycle
system.switch_cpus_1.commit.committedInsts    204770045                       # Number of instructions committed
system.switch_cpus_1.commit.committedOps    204770045                       # Number of ops (including micro ops) committed
system.switch_cpus_1.commit.swp_count               0                       # Number of s/w prefetches committed
system.switch_cpus_1.commit.refs             93279484                       # Number of memory references committed
system.switch_cpus_1.commit.loads            65107527                       # Number of loads committed
system.switch_cpus_1.commit.membars             65988                       # Number of memory barriers committed
system.switch_cpus_1.commit.branches         33714070                       # Number of branches committed
system.switch_cpus_1.commit.fp_insts           159557                       # Number of committed floating point instructions.
system.switch_cpus_1.commit.int_insts       196778837                       # Number of committed integer instructions.
system.switch_cpus_1.commit.function_calls      2336737                       # Number of function calls committed.
system.switch_cpus_1.commit.op_class_0::No_OpClass      4770592      2.33%      2.33% # Class of committed instruction
system.switch_cpus_1.commit.op_class_0::IntAlu    106615487     52.07%     54.40% # Class of committed instruction
system.switch_cpus_1.commit.op_class_0::IntMult         2354      0.00%     54.40% # Class of committed instruction
system.switch_cpus_1.commit.op_class_0::IntDiv            0      0.00%     54.40% # Class of committed instruction
system.switch_cpus_1.commit.op_class_0::FloatAdd        29677      0.01%     54.41% # Class of committed instruction
system.switch_cpus_1.commit.op_class_0::FloatCmp         2802      0.00%     54.41% # Class of committed instruction
system.switch_cpus_1.commit.op_class_0::FloatCvt         2757      0.00%     54.41% # Class of committed instruction
system.switch_cpus_1.commit.op_class_0::FloatMult          480      0.00%     54.41% # Class of committed instruction
system.switch_cpus_1.commit.op_class_0::FloatMultAcc            0      0.00%     54.41% # Class of committed instruction
system.switch_cpus_1.commit.op_class_0::FloatDiv          424      0.00%     54.41% # Class of committed instruction
system.switch_cpus_1.commit.op_class_0::FloatMisc            0      0.00%     54.41% # Class of committed instruction
system.switch_cpus_1.commit.op_class_0::FloatSqrt            0      0.00%     54.41% # Class of committed instruction
system.switch_cpus_1.commit.op_class_0::SimdAdd            0      0.00%     54.41% # Class of committed instruction
system.switch_cpus_1.commit.op_class_0::SimdAddAcc            0      0.00%     54.41% # Class of committed instruction
system.switch_cpus_1.commit.op_class_0::SimdAlu            0      0.00%     54.41% # Class of committed instruction
system.switch_cpus_1.commit.op_class_0::SimdCmp            0      0.00%     54.41% # Class of committed instruction
system.switch_cpus_1.commit.op_class_0::SimdCvt            0      0.00%     54.41% # Class of committed instruction
system.switch_cpus_1.commit.op_class_0::SimdMisc            0      0.00%     54.41% # Class of committed instruction
system.switch_cpus_1.commit.op_class_0::SimdMult            0      0.00%     54.41% # Class of committed instruction
system.switch_cpus_1.commit.op_class_0::SimdMultAcc            0      0.00%     54.41% # Class of committed instruction
system.switch_cpus_1.commit.op_class_0::SimdShift            0      0.00%     54.41% # Class of committed instruction
system.switch_cpus_1.commit.op_class_0::SimdShiftAcc            0      0.00%     54.41% # Class of committed instruction
system.switch_cpus_1.commit.op_class_0::SimdSqrt            0      0.00%     54.41% # Class of committed instruction
system.switch_cpus_1.commit.op_class_0::SimdFloatAdd            0      0.00%     54.41% # Class of committed instruction
system.switch_cpus_1.commit.op_class_0::SimdFloatAlu            0      0.00%     54.41% # Class of committed instruction
system.switch_cpus_1.commit.op_class_0::SimdFloatCmp            0      0.00%     54.41% # Class of committed instruction
system.switch_cpus_1.commit.op_class_0::SimdFloatCvt            0      0.00%     54.41% # Class of committed instruction
system.switch_cpus_1.commit.op_class_0::SimdFloatDiv            0      0.00%     54.41% # Class of committed instruction
system.switch_cpus_1.commit.op_class_0::SimdFloatMisc            0      0.00%     54.41% # Class of committed instruction
system.switch_cpus_1.commit.op_class_0::SimdFloatMult            0      0.00%     54.41% # Class of committed instruction
system.switch_cpus_1.commit.op_class_0::SimdFloatMultAcc            0      0.00%     54.41% # Class of committed instruction
system.switch_cpus_1.commit.op_class_0::SimdFloatSqrt            0      0.00%     54.41% # Class of committed instruction
system.switch_cpus_1.commit.op_class_0::MemRead     65122112     31.80%     86.22% # Class of committed instruction
system.switch_cpus_1.commit.op_class_0::MemWrite     28099943     13.72%     99.94% # Class of committed instruction
system.switch_cpus_1.commit.op_class_0::FloatMemRead        51403      0.03%     99.96% # Class of committed instruction
system.switch_cpus_1.commit.op_class_0::FloatMemWrite        72014      0.04%    100.00% # Class of committed instruction
system.switch_cpus_1.commit.op_class_0::IprAccess            0      0.00%    100.00% # Class of committed instruction
system.switch_cpus_1.commit.op_class_0::InstPrefetch            0      0.00%    100.00% # Class of committed instruction
system.switch_cpus_1.commit.op_class_0::total    204770045                       # Class of committed instruction
system.switch_cpus_1.commit.bw_lim_events     10699029                       # number cycles where commit BW limit reached
system.switch_cpus_1.rob.rob_reads          444070608                       # The number of ROB reads
system.switch_cpus_1.rob.rob_writes         556200880                       # The number of ROB writes
system.switch_cpus_1.timesIdled               1322167                       # Number of times that the entire CPU went into an idle state and unscheduled itself
system.switch_cpus_1.idleCycles              22274841                       # Total number of cycles that the CPU has spent unscheduled due to idling
system.switch_cpus_1.committedInsts         200000002                       # Number of Instructions Simulated
system.switch_cpus_1.committedOps           200000002                       # Number of Ops (including micro ops) Simulated
system.switch_cpus_1.cpi                     1.105939                       # CPI: Cycles Per Instruction
system.switch_cpus_1.cpi_total               1.105939                       # CPI: Total CPI of All Threads
system.switch_cpus_1.ipc                     0.904209                       # IPC: Instructions Per Cycle
system.switch_cpus_1.ipc_total               0.904209                       # IPC: Total IPC of All Threads
system.switch_cpus_1.int_regfile_reads      304386260                       # number of integer regfile reads
system.switch_cpus_1.int_regfile_writes     165778520                       # number of integer regfile writes
system.switch_cpus_1.fp_regfile_reads          181033                       # number of floating regfile reads
system.switch_cpus_1.fp_regfile_writes         105828                       # number of floating regfile writes
system.switch_cpus_1.misc_regfile_reads        151465                       # number of misc regfile reads
system.switch_cpus_1.misc_regfile_writes       132243                       # number of misc regfile writes
system.tol3bus.snoop_filter.tot_requests      1296897                       # Total number of requests made to the snoop filter.
system.tol3bus.snoop_filter.hit_single_requests       646412                       # Number of requests hitting in the snoop filter with a single holder of the requested data.
system.tol3bus.snoop_filter.hit_multi_requests            0                       # Number of requests hitting in the snoop filter with multiple (>1) holders of the requested data.
system.tol3bus.snoop_filter.tot_snoops            687                       # Total number of snoops made to the snoop filter.
system.tol3bus.snoop_filter.hit_single_snoops          687                       # Number of snoops hitting in the snoop filter with a single holder of the requested data.
system.tol3bus.snoop_filter.hit_multi_snoops            0                       # Number of snoops hitting in the snoop filter with multiple (>1) holders of the requested data.
system.tol3bus.pwrStateResidencyTicks::UNDEFINED 31102041899925                       # Cumulative time (in ticks) in various power states
system.tol3bus.trans_dist::ReadResp            579498                       # Transaction distribution
system.tol3bus.trans_dist::WritebackDirty       196836                       # Transaction distribution
system.tol3bus.trans_dist::CleanEvict          553065                       # Transaction distribution
system.tol3bus.trans_dist::UpgradeReq               3                       # Transaction distribution
system.tol3bus.trans_dist::UpgradeResp              3                       # Transaction distribution
system.tol3bus.trans_dist::ReadExReq            70987                       # Transaction distribution
system.tol3bus.trans_dist::ReadExResp           70987                       # Transaction distribution
system.tol3bus.trans_dist::ReadSharedReq       579498                       # Transaction distribution
system.tol3bus.pkt_count_system.cpu.l2.mem_side::system.l3.cpu_side      1947385                       # Packet count per connected master and slave (bytes)
system.tol3bus.pkt_size_system.cpu.l2.mem_side::system.l3.cpu_side     52823424                       # Cumulative packet size per connected master and slave (bytes)
system.tol3bus.snoops                          103492                       # Total snoops (count)
system.tol3bus.snoopTraffic                   1405120                       # Total snoop traffic (bytes)
system.tol3bus.snoop_fanout::samples           753980                       # Request fanout histogram
system.tol3bus.snoop_fanout::mean            0.000911                       # Request fanout histogram
system.tol3bus.snoop_fanout::stdev           0.030172                       # Request fanout histogram
system.tol3bus.snoop_fanout::underflows             0      0.00%      0.00% # Request fanout histogram
system.tol3bus.snoop_fanout::0                 753293     99.91%     99.91% # Request fanout histogram
system.tol3bus.snoop_fanout::1                    687      0.09%    100.00% # Request fanout histogram
system.tol3bus.snoop_fanout::overflows              0      0.00%    100.00% # Request fanout histogram
system.tol3bus.snoop_fanout::min_value              0                       # Request fanout histogram
system.tol3bus.snoop_fanout::max_value              1                       # Request fanout histogram
system.tol3bus.snoop_fanout::total             753980                       # Request fanout histogram
system.tol3bus.reqLayer0.occupancy          490102074                       # Layer occupancy (ticks)
system.tol3bus.reqLayer0.utilization              0.0                       # Layer utilization (%)
system.tol3bus.respLayer0.occupancy         433224009                       # Layer occupancy (ticks)
system.tol3bus.respLayer0.utilization             0.0                       # Layer utilization (%)

---------- End Simulation Statistics   ----------
