
---------- Begin Simulation Statistics ----------
sim_seconds                                  1.003671                       # Number of seconds simulated
sim_ticks                                1003670697960                       # Number of ticks simulated
final_tick                               176554954819827                       # Number of ticks from beginning of simulation (restored from checkpoints and never reset)
sim_freq                                 1000000000000                       # Frequency of simulated ticks
host_inst_rate                                 770547                       # Simulator instruction rate (inst/s)
host_op_rate                                   770547                       # Simulator op (including micro ops) rate (op/s)
host_tick_rate                              644479633                       # Simulator tick rate (ticks/s)
host_mem_usage                                2387948                       # Number of bytes of host memory used
host_seconds                                  1557.34                       # Real time elapsed on the host
sim_insts                                  1200000005                       # Number of instructions simulated
sim_ops                                    1200000005                       # Number of ops (including micro ops) simulated
system.voltage_domain.voltage                       1                       # Voltage in Volts
system.clk_domain.clock                          1000                       # Clock period in ticks
system.mem_ctrls0.pwrStateResidencyTicks::UNDEFINED 176554954819827                       # Cumulative time (in ticks) in various power states
system.mem_ctrls0.bytes_read::cpu.inst             64                       # Number of bytes read from this memory
system.mem_ctrls0.bytes_read::cpu.data            192                       # Number of bytes read from this memory
system.mem_ctrls0.bytes_read::switch_cpus.inst        48832                       # Number of bytes read from this memory
system.mem_ctrls0.bytes_read::switch_cpus.data      2283264                       # Number of bytes read from this memory
system.mem_ctrls0.bytes_read::switch_cpus_1.inst        11392                       # Number of bytes read from this memory
system.mem_ctrls0.bytes_read::switch_cpus_1.data       220416                       # Number of bytes read from this memory
system.mem_ctrls0.bytes_read::total           2564160                       # Number of bytes read from this memory
system.mem_ctrls0.bytes_inst_read::cpu.inst           64                       # Number of instructions bytes read from this memory
system.mem_ctrls0.bytes_inst_read::switch_cpus.inst        48832                       # Number of instructions bytes read from this memory
system.mem_ctrls0.bytes_inst_read::switch_cpus_1.inst        11392                       # Number of instructions bytes read from this memory
system.mem_ctrls0.bytes_inst_read::total        60288                       # Number of instructions bytes read from this memory
system.mem_ctrls0.bytes_written::writebacks        76992                       # Number of bytes written to this memory
system.mem_ctrls0.bytes_written::total          76992                       # Number of bytes written to this memory
system.mem_ctrls0.num_reads::cpu.inst               1                       # Number of read requests responded to by this memory
system.mem_ctrls0.num_reads::cpu.data               3                       # Number of read requests responded to by this memory
system.mem_ctrls0.num_reads::switch_cpus.inst          763                       # Number of read requests responded to by this memory
system.mem_ctrls0.num_reads::switch_cpus.data        35676                       # Number of read requests responded to by this memory
system.mem_ctrls0.num_reads::switch_cpus_1.inst          178                       # Number of read requests responded to by this memory
system.mem_ctrls0.num_reads::switch_cpus_1.data         3444                       # Number of read requests responded to by this memory
system.mem_ctrls0.num_reads::total              40065                       # Number of read requests responded to by this memory
system.mem_ctrls0.num_writes::writebacks         1203                       # Number of write requests responded to by this memory
system.mem_ctrls0.num_writes::total              1203                       # Number of write requests responded to by this memory
system.mem_ctrls0.bw_read::cpu.inst                64                       # Total read bandwidth from this memory (bytes/s)
system.mem_ctrls0.bw_read::cpu.data               191                       # Total read bandwidth from this memory (bytes/s)
system.mem_ctrls0.bw_read::switch_cpus.inst        48653                       # Total read bandwidth from this memory (bytes/s)
system.mem_ctrls0.bw_read::switch_cpus.data      2274913                       # Total read bandwidth from this memory (bytes/s)
system.mem_ctrls0.bw_read::switch_cpus_1.inst        11350                       # Total read bandwidth from this memory (bytes/s)
system.mem_ctrls0.bw_read::switch_cpus_1.data       219610                       # Total read bandwidth from this memory (bytes/s)
system.mem_ctrls0.bw_read::total              2554782                       # Total read bandwidth from this memory (bytes/s)
system.mem_ctrls0.bw_inst_read::cpu.inst           64                       # Instruction read bandwidth from this memory (bytes/s)
system.mem_ctrls0.bw_inst_read::switch_cpus.inst        48653                       # Instruction read bandwidth from this memory (bytes/s)
system.mem_ctrls0.bw_inst_read::switch_cpus_1.inst        11350                       # Instruction read bandwidth from this memory (bytes/s)
system.mem_ctrls0.bw_inst_read::total           60068                       # Instruction read bandwidth from this memory (bytes/s)
system.mem_ctrls0.bw_write::writebacks          76710                       # Write bandwidth from this memory (bytes/s)
system.mem_ctrls0.bw_write::total               76710                       # Write bandwidth from this memory (bytes/s)
system.mem_ctrls0.bw_total::writebacks          76710                       # Total bandwidth to/from this memory (bytes/s)
system.mem_ctrls0.bw_total::cpu.inst               64                       # Total bandwidth to/from this memory (bytes/s)
system.mem_ctrls0.bw_total::cpu.data              191                       # Total bandwidth to/from this memory (bytes/s)
system.mem_ctrls0.bw_total::switch_cpus.inst        48653                       # Total bandwidth to/from this memory (bytes/s)
system.mem_ctrls0.bw_total::switch_cpus.data      2274913                       # Total bandwidth to/from this memory (bytes/s)
system.mem_ctrls0.bw_total::switch_cpus_1.inst        11350                       # Total bandwidth to/from this memory (bytes/s)
system.mem_ctrls0.bw_total::switch_cpus_1.data       219610                       # Total bandwidth to/from this memory (bytes/s)
system.mem_ctrls0.bw_total::total             2631493                       # Total bandwidth to/from this memory (bytes/s)
system.mem_ctrls0.readReqs                      40065                       # Number of read requests accepted
system.mem_ctrls0.writeReqs                      1203                       # Number of write requests accepted
system.mem_ctrls0.readBursts                    40065                       # Number of DRAM read bursts, including those serviced by the write queue
system.mem_ctrls0.writeBursts                    1203                       # Number of DRAM write bursts, including those merged in the write queue
system.mem_ctrls0.bytesReadDRAM               2530112                       # Total number of bytes read from DRAM
system.mem_ctrls0.bytesReadWrQ                  34048                       # Total number of bytes read from write queue
system.mem_ctrls0.bytesWritten                  75776                       # Total number of bytes written to DRAM
system.mem_ctrls0.bytesReadSys                2564160                       # Total read bytes from the system interface side
system.mem_ctrls0.bytesWrittenSys               76992                       # Total written bytes from the system interface side
system.mem_ctrls0.servicedByWrQ                   532                       # Number of DRAM read bursts serviced by the write queue
system.mem_ctrls0.mergedWrBursts                    4                       # Number of DRAM write bursts merged with an existing one
system.mem_ctrls0.neitherReadNorWriteReqs            0                       # Number of requests that are neither read nor write
system.mem_ctrls0.perBankRdBursts::0             2518                       # Per bank write bursts
system.mem_ctrls0.perBankRdBursts::1             2171                       # Per bank write bursts
system.mem_ctrls0.perBankRdBursts::2             2241                       # Per bank write bursts
system.mem_ctrls0.perBankRdBursts::3             2442                       # Per bank write bursts
system.mem_ctrls0.perBankRdBursts::4             2228                       # Per bank write bursts
system.mem_ctrls0.perBankRdBursts::5             2412                       # Per bank write bursts
system.mem_ctrls0.perBankRdBursts::6             2580                       # Per bank write bursts
system.mem_ctrls0.perBankRdBursts::7             2463                       # Per bank write bursts
system.mem_ctrls0.perBankRdBursts::8             2500                       # Per bank write bursts
system.mem_ctrls0.perBankRdBursts::9             2572                       # Per bank write bursts
system.mem_ctrls0.perBankRdBursts::10            2618                       # Per bank write bursts
system.mem_ctrls0.perBankRdBursts::11            2466                       # Per bank write bursts
system.mem_ctrls0.perBankRdBursts::12            2603                       # Per bank write bursts
system.mem_ctrls0.perBankRdBursts::13            2497                       # Per bank write bursts
system.mem_ctrls0.perBankRdBursts::14            2785                       # Per bank write bursts
system.mem_ctrls0.perBankRdBursts::15            2437                       # Per bank write bursts
system.mem_ctrls0.perBankWrBursts::0               82                       # Per bank write bursts
system.mem_ctrls0.perBankWrBursts::1               20                       # Per bank write bursts
system.mem_ctrls0.perBankWrBursts::2               62                       # Per bank write bursts
system.mem_ctrls0.perBankWrBursts::3               54                       # Per bank write bursts
system.mem_ctrls0.perBankWrBursts::4               75                       # Per bank write bursts
system.mem_ctrls0.perBankWrBursts::5               46                       # Per bank write bursts
system.mem_ctrls0.perBankWrBursts::6              122                       # Per bank write bursts
system.mem_ctrls0.perBankWrBursts::7               63                       # Per bank write bursts
system.mem_ctrls0.perBankWrBursts::8               87                       # Per bank write bursts
system.mem_ctrls0.perBankWrBursts::9               40                       # Per bank write bursts
system.mem_ctrls0.perBankWrBursts::10              50                       # Per bank write bursts
system.mem_ctrls0.perBankWrBursts::11              90                       # Per bank write bursts
system.mem_ctrls0.perBankWrBursts::12              99                       # Per bank write bursts
system.mem_ctrls0.perBankWrBursts::13              65                       # Per bank write bursts
system.mem_ctrls0.perBankWrBursts::14             167                       # Per bank write bursts
system.mem_ctrls0.perBankWrBursts::15              62                       # Per bank write bursts
system.mem_ctrls0.numRdRetry                        0                       # Number of times read queue was full causing retry
system.mem_ctrls0.numWrRetry                        0                       # Number of times write queue was full causing retry
system.mem_ctrls0.totGap                 1003621584789                       # Total gap between requests
system.mem_ctrls0.readPktSize::0                    0                       # Read request sizes (log2)
system.mem_ctrls0.readPktSize::1                    0                       # Read request sizes (log2)
system.mem_ctrls0.readPktSize::2                    0                       # Read request sizes (log2)
system.mem_ctrls0.readPktSize::3                    0                       # Read request sizes (log2)
system.mem_ctrls0.readPktSize::4                    0                       # Read request sizes (log2)
system.mem_ctrls0.readPktSize::5                    0                       # Read request sizes (log2)
system.mem_ctrls0.readPktSize::6                40065                       # Read request sizes (log2)
system.mem_ctrls0.writePktSize::0                   0                       # Write request sizes (log2)
system.mem_ctrls0.writePktSize::1                   0                       # Write request sizes (log2)
system.mem_ctrls0.writePktSize::2                   0                       # Write request sizes (log2)
system.mem_ctrls0.writePktSize::3                   0                       # Write request sizes (log2)
system.mem_ctrls0.writePktSize::4                   0                       # Write request sizes (log2)
system.mem_ctrls0.writePktSize::5                   0                       # Write request sizes (log2)
system.mem_ctrls0.writePktSize::6                1203                       # Write request sizes (log2)
system.mem_ctrls0.rdQLenPdf::0                  39414                       # What read queue length does an incoming req see
system.mem_ctrls0.rdQLenPdf::1                    116                       # What read queue length does an incoming req see
system.mem_ctrls0.rdQLenPdf::2                      3                       # What read queue length does an incoming req see
system.mem_ctrls0.rdQLenPdf::3                      0                       # What read queue length does an incoming req see
system.mem_ctrls0.rdQLenPdf::4                      0                       # What read queue length does an incoming req see
system.mem_ctrls0.rdQLenPdf::5                      0                       # What read queue length does an incoming req see
system.mem_ctrls0.rdQLenPdf::6                      0                       # What read queue length does an incoming req see
system.mem_ctrls0.rdQLenPdf::7                      0                       # What read queue length does an incoming req see
system.mem_ctrls0.rdQLenPdf::8                      0                       # What read queue length does an incoming req see
system.mem_ctrls0.rdQLenPdf::9                      0                       # What read queue length does an incoming req see
system.mem_ctrls0.rdQLenPdf::10                     0                       # What read queue length does an incoming req see
system.mem_ctrls0.rdQLenPdf::11                     0                       # What read queue length does an incoming req see
system.mem_ctrls0.rdQLenPdf::12                     0                       # What read queue length does an incoming req see
system.mem_ctrls0.rdQLenPdf::13                     0                       # What read queue length does an incoming req see
system.mem_ctrls0.rdQLenPdf::14                     0                       # What read queue length does an incoming req see
system.mem_ctrls0.rdQLenPdf::15                     0                       # What read queue length does an incoming req see
system.mem_ctrls0.rdQLenPdf::16                     0                       # What read queue length does an incoming req see
system.mem_ctrls0.rdQLenPdf::17                     0                       # What read queue length does an incoming req see
system.mem_ctrls0.rdQLenPdf::18                     0                       # What read queue length does an incoming req see
system.mem_ctrls0.rdQLenPdf::19                     0                       # What read queue length does an incoming req see
system.mem_ctrls0.rdQLenPdf::20                     0                       # What read queue length does an incoming req see
system.mem_ctrls0.rdQLenPdf::21                     0                       # What read queue length does an incoming req see
system.mem_ctrls0.rdQLenPdf::22                     0                       # What read queue length does an incoming req see
system.mem_ctrls0.rdQLenPdf::23                     0                       # What read queue length does an incoming req see
system.mem_ctrls0.rdQLenPdf::24                     0                       # What read queue length does an incoming req see
system.mem_ctrls0.rdQLenPdf::25                     0                       # What read queue length does an incoming req see
system.mem_ctrls0.rdQLenPdf::26                     0                       # What read queue length does an incoming req see
system.mem_ctrls0.rdQLenPdf::27                     0                       # What read queue length does an incoming req see
system.mem_ctrls0.rdQLenPdf::28                     0                       # What read queue length does an incoming req see
system.mem_ctrls0.rdQLenPdf::29                     0                       # What read queue length does an incoming req see
system.mem_ctrls0.rdQLenPdf::30                     0                       # What read queue length does an incoming req see
system.mem_ctrls0.rdQLenPdf::31                     0                       # What read queue length does an incoming req see
system.mem_ctrls0.wrQLenPdf::0                      2                       # What write queue length does an incoming req see
system.mem_ctrls0.wrQLenPdf::1                      2                       # What write queue length does an incoming req see
system.mem_ctrls0.wrQLenPdf::2                      2                       # What write queue length does an incoming req see
system.mem_ctrls0.wrQLenPdf::3                      2                       # What write queue length does an incoming req see
system.mem_ctrls0.wrQLenPdf::4                      2                       # What write queue length does an incoming req see
system.mem_ctrls0.wrQLenPdf::5                      2                       # What write queue length does an incoming req see
system.mem_ctrls0.wrQLenPdf::6                      2                       # What write queue length does an incoming req see
system.mem_ctrls0.wrQLenPdf::7                      2                       # What write queue length does an incoming req see
system.mem_ctrls0.wrQLenPdf::8                      2                       # What write queue length does an incoming req see
system.mem_ctrls0.wrQLenPdf::9                      2                       # What write queue length does an incoming req see
system.mem_ctrls0.wrQLenPdf::10                     2                       # What write queue length does an incoming req see
system.mem_ctrls0.wrQLenPdf::11                     2                       # What write queue length does an incoming req see
system.mem_ctrls0.wrQLenPdf::12                     2                       # What write queue length does an incoming req see
system.mem_ctrls0.wrQLenPdf::13                     2                       # What write queue length does an incoming req see
system.mem_ctrls0.wrQLenPdf::14                     2                       # What write queue length does an incoming req see
system.mem_ctrls0.wrQLenPdf::15                    57                       # What write queue length does an incoming req see
system.mem_ctrls0.wrQLenPdf::16                    59                       # What write queue length does an incoming req see
system.mem_ctrls0.wrQLenPdf::17                    66                       # What write queue length does an incoming req see
system.mem_ctrls0.wrQLenPdf::18                    66                       # What write queue length does an incoming req see
system.mem_ctrls0.wrQLenPdf::19                    66                       # What write queue length does an incoming req see
system.mem_ctrls0.wrQLenPdf::20                    66                       # What write queue length does an incoming req see
system.mem_ctrls0.wrQLenPdf::21                    66                       # What write queue length does an incoming req see
system.mem_ctrls0.wrQLenPdf::22                    66                       # What write queue length does an incoming req see
system.mem_ctrls0.wrQLenPdf::23                    66                       # What write queue length does an incoming req see
system.mem_ctrls0.wrQLenPdf::24                    66                       # What write queue length does an incoming req see
system.mem_ctrls0.wrQLenPdf::25                    66                       # What write queue length does an incoming req see
system.mem_ctrls0.wrQLenPdf::26                    66                       # What write queue length does an incoming req see
system.mem_ctrls0.wrQLenPdf::27                    66                       # What write queue length does an incoming req see
system.mem_ctrls0.wrQLenPdf::28                    66                       # What write queue length does an incoming req see
system.mem_ctrls0.wrQLenPdf::29                    65                       # What write queue length does an incoming req see
system.mem_ctrls0.wrQLenPdf::30                    65                       # What write queue length does an incoming req see
system.mem_ctrls0.wrQLenPdf::31                    65                       # What write queue length does an incoming req see
system.mem_ctrls0.wrQLenPdf::32                    65                       # What write queue length does an incoming req see
system.mem_ctrls0.wrQLenPdf::33                     1                       # What write queue length does an incoming req see
system.mem_ctrls0.wrQLenPdf::34                     0                       # What write queue length does an incoming req see
system.mem_ctrls0.wrQLenPdf::35                     0                       # What write queue length does an incoming req see
system.mem_ctrls0.wrQLenPdf::36                     0                       # What write queue length does an incoming req see
system.mem_ctrls0.wrQLenPdf::37                     0                       # What write queue length does an incoming req see
system.mem_ctrls0.wrQLenPdf::38                     0                       # What write queue length does an incoming req see
system.mem_ctrls0.wrQLenPdf::39                     0                       # What write queue length does an incoming req see
system.mem_ctrls0.wrQLenPdf::40                     0                       # What write queue length does an incoming req see
system.mem_ctrls0.wrQLenPdf::41                     0                       # What write queue length does an incoming req see
system.mem_ctrls0.wrQLenPdf::42                     0                       # What write queue length does an incoming req see
system.mem_ctrls0.wrQLenPdf::43                     0                       # What write queue length does an incoming req see
system.mem_ctrls0.wrQLenPdf::44                     0                       # What write queue length does an incoming req see
system.mem_ctrls0.wrQLenPdf::45                     0                       # What write queue length does an incoming req see
system.mem_ctrls0.wrQLenPdf::46                     0                       # What write queue length does an incoming req see
system.mem_ctrls0.wrQLenPdf::47                     0                       # What write queue length does an incoming req see
system.mem_ctrls0.wrQLenPdf::48                     0                       # What write queue length does an incoming req see
system.mem_ctrls0.wrQLenPdf::49                     0                       # What write queue length does an incoming req see
system.mem_ctrls0.wrQLenPdf::50                     0                       # What write queue length does an incoming req see
system.mem_ctrls0.wrQLenPdf::51                     0                       # What write queue length does an incoming req see
system.mem_ctrls0.wrQLenPdf::52                     0                       # What write queue length does an incoming req see
system.mem_ctrls0.wrQLenPdf::53                     0                       # What write queue length does an incoming req see
system.mem_ctrls0.wrQLenPdf::54                     0                       # What write queue length does an incoming req see
system.mem_ctrls0.wrQLenPdf::55                     0                       # What write queue length does an incoming req see
system.mem_ctrls0.wrQLenPdf::56                     0                       # What write queue length does an incoming req see
system.mem_ctrls0.wrQLenPdf::57                     0                       # What write queue length does an incoming req see
system.mem_ctrls0.wrQLenPdf::58                     0                       # What write queue length does an incoming req see
system.mem_ctrls0.wrQLenPdf::59                     0                       # What write queue length does an incoming req see
system.mem_ctrls0.wrQLenPdf::60                     0                       # What write queue length does an incoming req see
system.mem_ctrls0.wrQLenPdf::61                     0                       # What write queue length does an incoming req see
system.mem_ctrls0.wrQLenPdf::62                     0                       # What write queue length does an incoming req see
system.mem_ctrls0.wrQLenPdf::63                     0                       # What write queue length does an incoming req see
system.mem_ctrls0.bytesPerActivate::samples        14641                       # Bytes accessed per row activation
system.mem_ctrls0.bytesPerActivate::mean   177.985657                       # Bytes accessed per row activation
system.mem_ctrls0.bytesPerActivate::gmean   123.935640                       # Bytes accessed per row activation
system.mem_ctrls0.bytesPerActivate::stdev   201.618435                       # Bytes accessed per row activation
system.mem_ctrls0.bytesPerActivate::0-127         6870     46.92%     46.92% # Bytes accessed per row activation
system.mem_ctrls0.bytesPerActivate::128-255         4937     33.72%     80.64% # Bytes accessed per row activation
system.mem_ctrls0.bytesPerActivate::256-383         1115      7.62%     88.26% # Bytes accessed per row activation
system.mem_ctrls0.bytesPerActivate::384-511          783      5.35%     93.61% # Bytes accessed per row activation
system.mem_ctrls0.bytesPerActivate::512-639          169      1.15%     94.76% # Bytes accessed per row activation
system.mem_ctrls0.bytesPerActivate::640-767          125      0.85%     95.62% # Bytes accessed per row activation
system.mem_ctrls0.bytesPerActivate::768-895          102      0.70%     96.31% # Bytes accessed per row activation
system.mem_ctrls0.bytesPerActivate::896-1023          164      1.12%     97.43% # Bytes accessed per row activation
system.mem_ctrls0.bytesPerActivate::1024-1151          376      2.57%    100.00% # Bytes accessed per row activation
system.mem_ctrls0.bytesPerActivate::total        14641                       # Bytes accessed per row activation
system.mem_ctrls0.rdPerTurnAround::samples           66                       # Reads before turning the bus around for writes
system.mem_ctrls0.rdPerTurnAround::mean    598.984848                       # Reads before turning the bus around for writes
system.mem_ctrls0.rdPerTurnAround::gmean   110.352287                       # Reads before turning the bus around for writes
system.mem_ctrls0.rdPerTurnAround::stdev  3566.176213                       # Reads before turning the bus around for writes
system.mem_ctrls0.rdPerTurnAround::0-1023           65     98.48%     98.48% # Reads before turning the bus around for writes
system.mem_ctrls0.rdPerTurnAround::28672-29695            1      1.52%    100.00% # Reads before turning the bus around for writes
system.mem_ctrls0.rdPerTurnAround::total           66                       # Reads before turning the bus around for writes
system.mem_ctrls0.wrPerTurnAround::samples           66                       # Writes before turning the bus around for reads
system.mem_ctrls0.wrPerTurnAround::mean     17.939394                       # Writes before turning the bus around for reads
system.mem_ctrls0.wrPerTurnAround::gmean    17.889123                       # Writes before turning the bus around for reads
system.mem_ctrls0.wrPerTurnAround::stdev     1.527983                       # Writes before turning the bus around for reads
system.mem_ctrls0.wrPerTurnAround::16               7     10.61%     10.61% # Writes before turning the bus around for reads
system.mem_ctrls0.wrPerTurnAround::17               2      3.03%     13.64% # Writes before turning the bus around for reads
system.mem_ctrls0.wrPerTurnAround::18              55     83.33%     96.97% # Writes before turning the bus around for reads
system.mem_ctrls0.wrPerTurnAround::19               1      1.52%     98.48% # Writes before turning the bus around for reads
system.mem_ctrls0.wrPerTurnAround::29               1      1.52%    100.00% # Writes before turning the bus around for reads
system.mem_ctrls0.wrPerTurnAround::total           66                       # Writes before turning the bus around for reads
system.mem_ctrls0.totQLat                  2953567517                       # Total ticks spent queuing
system.mem_ctrls0.totMemAccLat             3694811267                       # Total ticks spent from burst creation until serviced by the DRAM
system.mem_ctrls0.totBusLat                 197665000                       # Total ticks spent in databus transfers
system.mem_ctrls0.avgQLat                    74711.44                       # Average queueing delay per DRAM burst
system.mem_ctrls0.avgBusLat                   5000.00                       # Average bus latency per DRAM burst
system.mem_ctrls0.avgMemAccLat               93461.44                       # Average memory access latency per DRAM burst
system.mem_ctrls0.avgRdBW                        2.52                       # Average DRAM read bandwidth in MiByte/s
system.mem_ctrls0.avgWrBW                        0.08                       # Average achieved write bandwidth in MiByte/s
system.mem_ctrls0.avgRdBWSys                     2.55                       # Average system read bandwidth in MiByte/s
system.mem_ctrls0.avgWrBWSys                     0.08                       # Average system write bandwidth in MiByte/s
system.mem_ctrls0.peakBW                     12800.00                       # Theoretical peak bandwidth in MiByte/s
system.mem_ctrls0.busUtil                        0.02                       # Data bus utilization in percentage
system.mem_ctrls0.busUtilRead                    0.02                       # Data bus utilization in percentage for reads
system.mem_ctrls0.busUtilWrite                   0.00                       # Data bus utilization in percentage for writes
system.mem_ctrls0.avgRdQLen                      1.00                       # Average read queue length when enqueuing
system.mem_ctrls0.avgWrQLen                     13.08                       # Average write queue length when enqueuing
system.mem_ctrls0.readRowHits                   25883                       # Number of row buffer hits during reads
system.mem_ctrls0.writeRowHits                    193                       # Number of row buffer hits during writes
system.mem_ctrls0.readRowHitRate                65.47                       # Row buffer hit rate for reads
system.mem_ctrls0.writeRowHitRate               16.10                       # Row buffer hit rate for writes
system.mem_ctrls0.avgGap                  24319608.04                       # Average gap between requests
system.mem_ctrls0.pageHitRate                   64.02                       # Row buffer hit rate, read and write combined
system.mem_ctrls0_0.actEnergy                47231100                       # Energy for activate commands per rank (pJ)
system.mem_ctrls0_0.preEnergy                25103925                       # Energy for precharge commands per rank (pJ)
system.mem_ctrls0_0.readEnergy              136052700                       # Energy for read commands per rank (pJ)
system.mem_ctrls0_0.writeEnergy               2735280                       # Energy for write commands per rank (pJ)
system.mem_ctrls0_0.refreshEnergy        4737645120.000001                       # Energy for refresh commands per rank (pJ)
system.mem_ctrls0_0.actBackEnergy          1247825190                       # Energy for active background per rank (pJ)
system.mem_ctrls0_0.preBackEnergy           285647520                       # Energy for precharge background per rank (pJ)
system.mem_ctrls0_0.actPowerDownEnergy    10578932670                       # Energy for active power-down per rank (pJ)
system.mem_ctrls0_0.prePowerDownEnergy     6933809280                       # Energy for precharge power-down per rank (pJ)
system.mem_ctrls0_0.selfRefreshEnergy    231308497305                       # Energy for self refresh per rank (pJ)
system.mem_ctrls0_0.totalEnergy          255305220630                       # Total energy per rank (pJ)
system.mem_ctrls0_0.averagePower           254.371500                       # Core power per rank (mW)
system.mem_ctrls0_0.totalIdleTime        1000148079109                       # Total Idle time Per DRAM Rank
system.mem_ctrls0_0.memoryStateTime::IDLE    578569818                       # Time in different power states
system.mem_ctrls0_0.memoryStateTime::REF   2016848000                       # Time in different power states
system.mem_ctrls0_0.memoryStateTime::SREF 958930293710                       # Time in different power states
system.mem_ctrls0_0.memoryStateTime::PRE_PDN  18056778067                       # Time in different power states
system.mem_ctrls0_0.memoryStateTime::ACT    888833397                       # Time in different power states
system.mem_ctrls0_0.memoryStateTime::ACT_PDN  23199374968                       # Time in different power states
system.mem_ctrls0_1.actEnergy                57305640                       # Energy for activate commands per rank (pJ)
system.mem_ctrls0_1.preEnergy                30458670                       # Energy for precharge commands per rank (pJ)
system.mem_ctrls0_1.readEnergy              146212920                       # Energy for read commands per rank (pJ)
system.mem_ctrls0_1.writeEnergy               3445200                       # Energy for write commands per rank (pJ)
system.mem_ctrls0_1.refreshEnergy        5796669840.000001                       # Energy for refresh commands per rank (pJ)
system.mem_ctrls0_1.actBackEnergy          1464137910                       # Energy for active background per rank (pJ)
system.mem_ctrls0_1.preBackEnergy           348865920                       # Energy for precharge background per rank (pJ)
system.mem_ctrls0_1.actPowerDownEnergy    12855739530                       # Energy for active power-down per rank (pJ)
system.mem_ctrls0_1.prePowerDownEnergy     8764692480                       # Energy for precharge power-down per rank (pJ)
system.mem_ctrls0_1.selfRefreshEnergy    229042159830                       # Energy for self refresh per rank (pJ)
system.mem_ctrls0_1.totalEnergy          258511295910                       # Total energy per rank (pJ)
system.mem_ctrls0_1.averagePower           257.565850                       # Core power per rank (mW)
system.mem_ctrls0_1.totalIdleTime        999509501011                       # Total Idle time Per DRAM Rank
system.mem_ctrls0_1.memoryStateTime::IDLE    704250260                       # Time in different power states
system.mem_ctrls0_1.memoryStateTime::REF   2467474000                       # Time in different power states
system.mem_ctrls0_1.memoryStateTime::SREF 948530688960                       # Time in different power states
system.mem_ctrls0_1.memoryStateTime::PRE_PDN  22824746719                       # Time in different power states
system.mem_ctrls0_1.memoryStateTime::ACT    951105053                       # Time in different power states
system.mem_ctrls0_1.memoryStateTime::ACT_PDN  28192432968                       # Time in different power states
system.mem_ctrls1.pwrStateResidencyTicks::UNDEFINED 176554954819827                       # Cumulative time (in ticks) in various power states
system.mem_ctrls1.bytes_read::cpu.inst            192                       # Number of bytes read from this memory
system.mem_ctrls1.bytes_read::cpu.data            128                       # Number of bytes read from this memory
system.mem_ctrls1.bytes_read::switch_cpus.inst        48896                       # Number of bytes read from this memory
system.mem_ctrls1.bytes_read::switch_cpus.data      2280192                       # Number of bytes read from this memory
system.mem_ctrls1.bytes_read::switch_cpus_1.inst        13120                       # Number of bytes read from this memory
system.mem_ctrls1.bytes_read::switch_cpus_1.data       221824                       # Number of bytes read from this memory
system.mem_ctrls1.bytes_read::total           2564352                       # Number of bytes read from this memory
system.mem_ctrls1.bytes_inst_read::cpu.inst          192                       # Number of instructions bytes read from this memory
system.mem_ctrls1.bytes_inst_read::switch_cpus.inst        48896                       # Number of instructions bytes read from this memory
system.mem_ctrls1.bytes_inst_read::switch_cpus_1.inst        13120                       # Number of instructions bytes read from this memory
system.mem_ctrls1.bytes_inst_read::total        62208                       # Number of instructions bytes read from this memory
system.mem_ctrls1.bytes_written::writebacks        76416                       # Number of bytes written to this memory
system.mem_ctrls1.bytes_written::total          76416                       # Number of bytes written to this memory
system.mem_ctrls1.num_reads::cpu.inst               3                       # Number of read requests responded to by this memory
system.mem_ctrls1.num_reads::cpu.data               2                       # Number of read requests responded to by this memory
system.mem_ctrls1.num_reads::switch_cpus.inst          764                       # Number of read requests responded to by this memory
system.mem_ctrls1.num_reads::switch_cpus.data        35628                       # Number of read requests responded to by this memory
system.mem_ctrls1.num_reads::switch_cpus_1.inst          205                       # Number of read requests responded to by this memory
system.mem_ctrls1.num_reads::switch_cpus_1.data         3466                       # Number of read requests responded to by this memory
system.mem_ctrls1.num_reads::total              40068                       # Number of read requests responded to by this memory
system.mem_ctrls1.num_writes::writebacks         1194                       # Number of write requests responded to by this memory
system.mem_ctrls1.num_writes::total              1194                       # Number of write requests responded to by this memory
system.mem_ctrls1.bw_read::cpu.inst               191                       # Total read bandwidth from this memory (bytes/s)
system.mem_ctrls1.bw_read::cpu.data               128                       # Total read bandwidth from this memory (bytes/s)
system.mem_ctrls1.bw_read::switch_cpus.inst        48717                       # Total read bandwidth from this memory (bytes/s)
system.mem_ctrls1.bw_read::switch_cpus.data      2271853                       # Total read bandwidth from this memory (bytes/s)
system.mem_ctrls1.bw_read::switch_cpus_1.inst        13072                       # Total read bandwidth from this memory (bytes/s)
system.mem_ctrls1.bw_read::switch_cpus_1.data       221013                       # Total read bandwidth from this memory (bytes/s)
system.mem_ctrls1.bw_read::total              2554973                       # Total read bandwidth from this memory (bytes/s)
system.mem_ctrls1.bw_inst_read::cpu.inst          191                       # Instruction read bandwidth from this memory (bytes/s)
system.mem_ctrls1.bw_inst_read::switch_cpus.inst        48717                       # Instruction read bandwidth from this memory (bytes/s)
system.mem_ctrls1.bw_inst_read::switch_cpus_1.inst        13072                       # Instruction read bandwidth from this memory (bytes/s)
system.mem_ctrls1.bw_inst_read::total           61980                       # Instruction read bandwidth from this memory (bytes/s)
system.mem_ctrls1.bw_write::writebacks          76137                       # Write bandwidth from this memory (bytes/s)
system.mem_ctrls1.bw_write::total               76137                       # Write bandwidth from this memory (bytes/s)
system.mem_ctrls1.bw_total::writebacks          76137                       # Total bandwidth to/from this memory (bytes/s)
system.mem_ctrls1.bw_total::cpu.inst              191                       # Total bandwidth to/from this memory (bytes/s)
system.mem_ctrls1.bw_total::cpu.data              128                       # Total bandwidth to/from this memory (bytes/s)
system.mem_ctrls1.bw_total::switch_cpus.inst        48717                       # Total bandwidth to/from this memory (bytes/s)
system.mem_ctrls1.bw_total::switch_cpus.data      2271853                       # Total bandwidth to/from this memory (bytes/s)
system.mem_ctrls1.bw_total::switch_cpus_1.inst        13072                       # Total bandwidth to/from this memory (bytes/s)
system.mem_ctrls1.bw_total::switch_cpus_1.data       221013                       # Total bandwidth to/from this memory (bytes/s)
system.mem_ctrls1.bw_total::total             2631110                       # Total bandwidth to/from this memory (bytes/s)
system.mem_ctrls1.readReqs                      40068                       # Number of read requests accepted
system.mem_ctrls1.writeReqs                      1194                       # Number of write requests accepted
system.mem_ctrls1.readBursts                    40068                       # Number of DRAM read bursts, including those serviced by the write queue
system.mem_ctrls1.writeBursts                    1194                       # Number of DRAM write bursts, including those merged in the write queue
system.mem_ctrls1.bytesReadDRAM               2532032                       # Total number of bytes read from DRAM
system.mem_ctrls1.bytesReadWrQ                  32320                       # Total number of bytes read from write queue
system.mem_ctrls1.bytesWritten                  74560                       # Total number of bytes written to DRAM
system.mem_ctrls1.bytesReadSys                2564352                       # Total read bytes from the system interface side
system.mem_ctrls1.bytesWrittenSys               76416                       # Total written bytes from the system interface side
system.mem_ctrls1.servicedByWrQ                   505                       # Number of DRAM read bursts serviced by the write queue
system.mem_ctrls1.mergedWrBursts                    2                       # Number of DRAM write bursts merged with an existing one
system.mem_ctrls1.neitherReadNorWriteReqs            0                       # Number of requests that are neither read nor write
system.mem_ctrls1.perBankRdBursts::0             2502                       # Per bank write bursts
system.mem_ctrls1.perBankRdBursts::1             2191                       # Per bank write bursts
system.mem_ctrls1.perBankRdBursts::2             2247                       # Per bank write bursts
system.mem_ctrls1.perBankRdBursts::3             2439                       # Per bank write bursts
system.mem_ctrls1.perBankRdBursts::4             2247                       # Per bank write bursts
system.mem_ctrls1.perBankRdBursts::5             2381                       # Per bank write bursts
system.mem_ctrls1.perBankRdBursts::6             2600                       # Per bank write bursts
system.mem_ctrls1.perBankRdBursts::7             2481                       # Per bank write bursts
system.mem_ctrls1.perBankRdBursts::8             2533                       # Per bank write bursts
system.mem_ctrls1.perBankRdBursts::9             2570                       # Per bank write bursts
system.mem_ctrls1.perBankRdBursts::10            2617                       # Per bank write bursts
system.mem_ctrls1.perBankRdBursts::11            2451                       # Per bank write bursts
system.mem_ctrls1.perBankRdBursts::12            2573                       # Per bank write bursts
system.mem_ctrls1.perBankRdBursts::13            2499                       # Per bank write bursts
system.mem_ctrls1.perBankRdBursts::14            2771                       # Per bank write bursts
system.mem_ctrls1.perBankRdBursts::15            2461                       # Per bank write bursts
system.mem_ctrls1.perBankWrBursts::0               68                       # Per bank write bursts
system.mem_ctrls1.perBankWrBursts::1               33                       # Per bank write bursts
system.mem_ctrls1.perBankWrBursts::2               44                       # Per bank write bursts
system.mem_ctrls1.perBankWrBursts::3               43                       # Per bank write bursts
system.mem_ctrls1.perBankWrBursts::4               70                       # Per bank write bursts
system.mem_ctrls1.perBankWrBursts::5               37                       # Per bank write bursts
system.mem_ctrls1.perBankWrBursts::6              126                       # Per bank write bursts
system.mem_ctrls1.perBankWrBursts::7               82                       # Per bank write bursts
system.mem_ctrls1.perBankWrBursts::8              101                       # Per bank write bursts
system.mem_ctrls1.perBankWrBursts::9               38                       # Per bank write bursts
system.mem_ctrls1.perBankWrBursts::10              56                       # Per bank write bursts
system.mem_ctrls1.perBankWrBursts::11              98                       # Per bank write bursts
system.mem_ctrls1.perBankWrBursts::12              83                       # Per bank write bursts
system.mem_ctrls1.perBankWrBursts::13              64                       # Per bank write bursts
system.mem_ctrls1.perBankWrBursts::14             171                       # Per bank write bursts
system.mem_ctrls1.perBankWrBursts::15              51                       # Per bank write bursts
system.mem_ctrls1.numRdRetry                        0                       # Number of times read queue was full causing retry
system.mem_ctrls1.numWrRetry                        0                       # Number of times write queue was full causing retry
system.mem_ctrls1.totGap                 1003633657038                       # Total gap between requests
system.mem_ctrls1.readPktSize::0                    0                       # Read request sizes (log2)
system.mem_ctrls1.readPktSize::1                    0                       # Read request sizes (log2)
system.mem_ctrls1.readPktSize::2                    0                       # Read request sizes (log2)
system.mem_ctrls1.readPktSize::3                    0                       # Read request sizes (log2)
system.mem_ctrls1.readPktSize::4                    0                       # Read request sizes (log2)
system.mem_ctrls1.readPktSize::5                    0                       # Read request sizes (log2)
system.mem_ctrls1.readPktSize::6                40068                       # Read request sizes (log2)
system.mem_ctrls1.writePktSize::0                   0                       # Write request sizes (log2)
system.mem_ctrls1.writePktSize::1                   0                       # Write request sizes (log2)
system.mem_ctrls1.writePktSize::2                   0                       # Write request sizes (log2)
system.mem_ctrls1.writePktSize::3                   0                       # Write request sizes (log2)
system.mem_ctrls1.writePktSize::4                   0                       # Write request sizes (log2)
system.mem_ctrls1.writePktSize::5                   0                       # Write request sizes (log2)
system.mem_ctrls1.writePktSize::6                1194                       # Write request sizes (log2)
system.mem_ctrls1.rdQLenPdf::0                  39418                       # What read queue length does an incoming req see
system.mem_ctrls1.rdQLenPdf::1                    140                       # What read queue length does an incoming req see
system.mem_ctrls1.rdQLenPdf::2                      5                       # What read queue length does an incoming req see
system.mem_ctrls1.rdQLenPdf::3                      0                       # What read queue length does an incoming req see
system.mem_ctrls1.rdQLenPdf::4                      0                       # What read queue length does an incoming req see
system.mem_ctrls1.rdQLenPdf::5                      0                       # What read queue length does an incoming req see
system.mem_ctrls1.rdQLenPdf::6                      0                       # What read queue length does an incoming req see
system.mem_ctrls1.rdQLenPdf::7                      0                       # What read queue length does an incoming req see
system.mem_ctrls1.rdQLenPdf::8                      0                       # What read queue length does an incoming req see
system.mem_ctrls1.rdQLenPdf::9                      0                       # What read queue length does an incoming req see
system.mem_ctrls1.rdQLenPdf::10                     0                       # What read queue length does an incoming req see
system.mem_ctrls1.rdQLenPdf::11                     0                       # What read queue length does an incoming req see
system.mem_ctrls1.rdQLenPdf::12                     0                       # What read queue length does an incoming req see
system.mem_ctrls1.rdQLenPdf::13                     0                       # What read queue length does an incoming req see
system.mem_ctrls1.rdQLenPdf::14                     0                       # What read queue length does an incoming req see
system.mem_ctrls1.rdQLenPdf::15                     0                       # What read queue length does an incoming req see
system.mem_ctrls1.rdQLenPdf::16                     0                       # What read queue length does an incoming req see
system.mem_ctrls1.rdQLenPdf::17                     0                       # What read queue length does an incoming req see
system.mem_ctrls1.rdQLenPdf::18                     0                       # What read queue length does an incoming req see
system.mem_ctrls1.rdQLenPdf::19                     0                       # What read queue length does an incoming req see
system.mem_ctrls1.rdQLenPdf::20                     0                       # What read queue length does an incoming req see
system.mem_ctrls1.rdQLenPdf::21                     0                       # What read queue length does an incoming req see
system.mem_ctrls1.rdQLenPdf::22                     0                       # What read queue length does an incoming req see
system.mem_ctrls1.rdQLenPdf::23                     0                       # What read queue length does an incoming req see
system.mem_ctrls1.rdQLenPdf::24                     0                       # What read queue length does an incoming req see
system.mem_ctrls1.rdQLenPdf::25                     0                       # What read queue length does an incoming req see
system.mem_ctrls1.rdQLenPdf::26                     0                       # What read queue length does an incoming req see
system.mem_ctrls1.rdQLenPdf::27                     0                       # What read queue length does an incoming req see
system.mem_ctrls1.rdQLenPdf::28                     0                       # What read queue length does an incoming req see
system.mem_ctrls1.rdQLenPdf::29                     0                       # What read queue length does an incoming req see
system.mem_ctrls1.rdQLenPdf::30                     0                       # What read queue length does an incoming req see
system.mem_ctrls1.rdQLenPdf::31                     0                       # What read queue length does an incoming req see
system.mem_ctrls1.wrQLenPdf::0                      2                       # What write queue length does an incoming req see
system.mem_ctrls1.wrQLenPdf::1                      2                       # What write queue length does an incoming req see
system.mem_ctrls1.wrQLenPdf::2                      2                       # What write queue length does an incoming req see
system.mem_ctrls1.wrQLenPdf::3                      2                       # What write queue length does an incoming req see
system.mem_ctrls1.wrQLenPdf::4                      2                       # What write queue length does an incoming req see
system.mem_ctrls1.wrQLenPdf::5                      2                       # What write queue length does an incoming req see
system.mem_ctrls1.wrQLenPdf::6                      2                       # What write queue length does an incoming req see
system.mem_ctrls1.wrQLenPdf::7                      2                       # What write queue length does an incoming req see
system.mem_ctrls1.wrQLenPdf::8                      2                       # What write queue length does an incoming req see
system.mem_ctrls1.wrQLenPdf::9                      2                       # What write queue length does an incoming req see
system.mem_ctrls1.wrQLenPdf::10                     2                       # What write queue length does an incoming req see
system.mem_ctrls1.wrQLenPdf::11                     2                       # What write queue length does an incoming req see
system.mem_ctrls1.wrQLenPdf::12                     2                       # What write queue length does an incoming req see
system.mem_ctrls1.wrQLenPdf::13                     2                       # What write queue length does an incoming req see
system.mem_ctrls1.wrQLenPdf::14                     2                       # What write queue length does an incoming req see
system.mem_ctrls1.wrQLenPdf::15                    59                       # What write queue length does an incoming req see
system.mem_ctrls1.wrQLenPdf::16                    59                       # What write queue length does an incoming req see
system.mem_ctrls1.wrQLenPdf::17                    65                       # What write queue length does an incoming req see
system.mem_ctrls1.wrQLenPdf::18                    66                       # What write queue length does an incoming req see
system.mem_ctrls1.wrQLenPdf::19                    66                       # What write queue length does an incoming req see
system.mem_ctrls1.wrQLenPdf::20                    66                       # What write queue length does an incoming req see
system.mem_ctrls1.wrQLenPdf::21                    66                       # What write queue length does an incoming req see
system.mem_ctrls1.wrQLenPdf::22                    66                       # What write queue length does an incoming req see
system.mem_ctrls1.wrQLenPdf::23                    66                       # What write queue length does an incoming req see
system.mem_ctrls1.wrQLenPdf::24                    65                       # What write queue length does an incoming req see
system.mem_ctrls1.wrQLenPdf::25                    65                       # What write queue length does an incoming req see
system.mem_ctrls1.wrQLenPdf::26                    65                       # What write queue length does an incoming req see
system.mem_ctrls1.wrQLenPdf::27                    64                       # What write queue length does an incoming req see
system.mem_ctrls1.wrQLenPdf::28                    65                       # What write queue length does an incoming req see
system.mem_ctrls1.wrQLenPdf::29                    64                       # What write queue length does an incoming req see
system.mem_ctrls1.wrQLenPdf::30                    64                       # What write queue length does an incoming req see
system.mem_ctrls1.wrQLenPdf::31                    64                       # What write queue length does an incoming req see
system.mem_ctrls1.wrQLenPdf::32                    64                       # What write queue length does an incoming req see
system.mem_ctrls1.wrQLenPdf::33                     2                       # What write queue length does an incoming req see
system.mem_ctrls1.wrQLenPdf::34                     1                       # What write queue length does an incoming req see
system.mem_ctrls1.wrQLenPdf::35                     0                       # What write queue length does an incoming req see
system.mem_ctrls1.wrQLenPdf::36                     0                       # What write queue length does an incoming req see
system.mem_ctrls1.wrQLenPdf::37                     0                       # What write queue length does an incoming req see
system.mem_ctrls1.wrQLenPdf::38                     0                       # What write queue length does an incoming req see
system.mem_ctrls1.wrQLenPdf::39                     0                       # What write queue length does an incoming req see
system.mem_ctrls1.wrQLenPdf::40                     0                       # What write queue length does an incoming req see
system.mem_ctrls1.wrQLenPdf::41                     0                       # What write queue length does an incoming req see
system.mem_ctrls1.wrQLenPdf::42                     0                       # What write queue length does an incoming req see
system.mem_ctrls1.wrQLenPdf::43                     0                       # What write queue length does an incoming req see
system.mem_ctrls1.wrQLenPdf::44                     0                       # What write queue length does an incoming req see
system.mem_ctrls1.wrQLenPdf::45                     0                       # What write queue length does an incoming req see
system.mem_ctrls1.wrQLenPdf::46                     0                       # What write queue length does an incoming req see
system.mem_ctrls1.wrQLenPdf::47                     0                       # What write queue length does an incoming req see
system.mem_ctrls1.wrQLenPdf::48                     0                       # What write queue length does an incoming req see
system.mem_ctrls1.wrQLenPdf::49                     0                       # What write queue length does an incoming req see
system.mem_ctrls1.wrQLenPdf::50                     0                       # What write queue length does an incoming req see
system.mem_ctrls1.wrQLenPdf::51                     0                       # What write queue length does an incoming req see
system.mem_ctrls1.wrQLenPdf::52                     0                       # What write queue length does an incoming req see
system.mem_ctrls1.wrQLenPdf::53                     0                       # What write queue length does an incoming req see
system.mem_ctrls1.wrQLenPdf::54                     0                       # What write queue length does an incoming req see
system.mem_ctrls1.wrQLenPdf::55                     0                       # What write queue length does an incoming req see
system.mem_ctrls1.wrQLenPdf::56                     0                       # What write queue length does an incoming req see
system.mem_ctrls1.wrQLenPdf::57                     0                       # What write queue length does an incoming req see
system.mem_ctrls1.wrQLenPdf::58                     0                       # What write queue length does an incoming req see
system.mem_ctrls1.wrQLenPdf::59                     0                       # What write queue length does an incoming req see
system.mem_ctrls1.wrQLenPdf::60                     0                       # What write queue length does an incoming req see
system.mem_ctrls1.wrQLenPdf::61                     0                       # What write queue length does an incoming req see
system.mem_ctrls1.wrQLenPdf::62                     0                       # What write queue length does an incoming req see
system.mem_ctrls1.wrQLenPdf::63                     0                       # What write queue length does an incoming req see
system.mem_ctrls1.bytesPerActivate::samples        14556                       # Bytes accessed per row activation
system.mem_ctrls1.bytesPerActivate::mean   179.073372                       # Bytes accessed per row activation
system.mem_ctrls1.bytesPerActivate::gmean   124.088976                       # Bytes accessed per row activation
system.mem_ctrls1.bytesPerActivate::stdev   204.142802                       # Bytes accessed per row activation
system.mem_ctrls1.bytesPerActivate::0-127         6856     47.10%     47.10% # Bytes accessed per row activation
system.mem_ctrls1.bytesPerActivate::128-255         4877     33.51%     80.61% # Bytes accessed per row activation
system.mem_ctrls1.bytesPerActivate::256-383         1073      7.37%     87.98% # Bytes accessed per row activation
system.mem_ctrls1.bytesPerActivate::384-511          809      5.56%     93.54% # Bytes accessed per row activation
system.mem_ctrls1.bytesPerActivate::512-639          165      1.13%     94.67% # Bytes accessed per row activation
system.mem_ctrls1.bytesPerActivate::640-767          107      0.74%     95.40% # Bytes accessed per row activation
system.mem_ctrls1.bytesPerActivate::768-895          111      0.76%     96.17% # Bytes accessed per row activation
system.mem_ctrls1.bytesPerActivate::896-1023          162      1.11%     97.28% # Bytes accessed per row activation
system.mem_ctrls1.bytesPerActivate::1024-1151          396      2.72%    100.00% # Bytes accessed per row activation
system.mem_ctrls1.bytesPerActivate::total        14556                       # Bytes accessed per row activation
system.mem_ctrls1.rdPerTurnAround::samples           65                       # Reads before turning the bus around for writes
system.mem_ctrls1.rdPerTurnAround::mean    606.969231                       # Reads before turning the bus around for writes
system.mem_ctrls1.rdPerTurnAround::gmean   128.019155                       # Reads before turning the bus around for writes
system.mem_ctrls1.rdPerTurnAround::stdev  3634.893366                       # Reads before turning the bus around for writes
system.mem_ctrls1.rdPerTurnAround::0-1023           64     98.46%     98.46% # Reads before turning the bus around for writes
system.mem_ctrls1.rdPerTurnAround::28672-29695            1      1.54%    100.00% # Reads before turning the bus around for writes
system.mem_ctrls1.rdPerTurnAround::total           65                       # Reads before turning the bus around for writes
system.mem_ctrls1.wrPerTurnAround::samples           65                       # Writes before turning the bus around for reads
system.mem_ctrls1.wrPerTurnAround::mean     17.923077                       # Writes before turning the bus around for reads
system.mem_ctrls1.wrPerTurnAround::gmean    17.895800                       # Writes before turning the bus around for reads
system.mem_ctrls1.wrPerTurnAround::stdev     1.035430                       # Writes before turning the bus around for reads
system.mem_ctrls1.wrPerTurnAround::16               7     10.77%     10.77% # Writes before turning the bus around for reads
system.mem_ctrls1.wrPerTurnAround::18              55     84.62%     95.38% # Writes before turning the bus around for reads
system.mem_ctrls1.wrPerTurnAround::19               1      1.54%     96.92% # Writes before turning the bus around for reads
system.mem_ctrls1.wrPerTurnAround::20               1      1.54%     98.46% # Writes before turning the bus around for reads
system.mem_ctrls1.wrPerTurnAround::24               1      1.54%    100.00% # Writes before turning the bus around for reads
system.mem_ctrls1.wrPerTurnAround::total           65                       # Writes before turning the bus around for reads
system.mem_ctrls1.totQLat                  2979266552                       # Total ticks spent queuing
system.mem_ctrls1.totMemAccLat             3721072802                       # Total ticks spent from burst creation until serviced by the DRAM
system.mem_ctrls1.totBusLat                 197815000                       # Total ticks spent in databus transfers
system.mem_ctrls1.avgQLat                    75304.36                       # Average queueing delay per DRAM burst
system.mem_ctrls1.avgBusLat                   5000.00                       # Average bus latency per DRAM burst
system.mem_ctrls1.avgMemAccLat               94054.36                       # Average memory access latency per DRAM burst
system.mem_ctrls1.avgRdBW                        2.52                       # Average DRAM read bandwidth in MiByte/s
system.mem_ctrls1.avgWrBW                        0.07                       # Average achieved write bandwidth in MiByte/s
system.mem_ctrls1.avgRdBWSys                     2.55                       # Average system read bandwidth in MiByte/s
system.mem_ctrls1.avgWrBWSys                     0.08                       # Average system write bandwidth in MiByte/s
system.mem_ctrls1.peakBW                     12800.00                       # Theoretical peak bandwidth in MiByte/s
system.mem_ctrls1.busUtil                        0.02                       # Data bus utilization in percentage
system.mem_ctrls1.busUtilRead                    0.02                       # Data bus utilization in percentage for reads
system.mem_ctrls1.busUtilWrite                   0.00                       # Data bus utilization in percentage for writes
system.mem_ctrls1.avgRdQLen                      1.00                       # Average read queue length when enqueuing
system.mem_ctrls1.avgWrQLen                     13.18                       # Average write queue length when enqueuing
system.mem_ctrls1.readRowHits                   25960                       # Number of row buffer hits during reads
system.mem_ctrls1.writeRowHits                    212                       # Number of row buffer hits during writes
system.mem_ctrls1.readRowHitRate                65.62                       # Row buffer hit rate for reads
system.mem_ctrls1.writeRowHitRate               17.79                       # Row buffer hit rate for writes
system.mem_ctrls1.avgGap                  24323436.99                       # Average gap between requests
system.mem_ctrls1.pageHitRate                   64.22                       # Row buffer hit rate, read and write combined
system.mem_ctrls1_0.actEnergy                47145420                       # Energy for activate commands per rank (pJ)
system.mem_ctrls1_0.preEnergy                25058385                       # Energy for precharge commands per rank (pJ)
system.mem_ctrls1_0.readEnergy              136288320                       # Energy for read commands per rank (pJ)
system.mem_ctrls1_0.writeEnergy               2625660                       # Energy for write commands per rank (pJ)
system.mem_ctrls1_0.refreshEnergy        4799109120.000001                       # Energy for refresh commands per rank (pJ)
system.mem_ctrls1_0.actBackEnergy          1272460020                       # Energy for active background per rank (pJ)
system.mem_ctrls1_0.preBackEnergy           289984320                       # Energy for precharge background per rank (pJ)
system.mem_ctrls1_0.actPowerDownEnergy    10605482130                       # Energy for active power-down per rank (pJ)
system.mem_ctrls1_0.prePowerDownEnergy     7087818240                       # Energy for precharge power-down per rank (pJ)
system.mem_ctrls1_0.selfRefreshEnergy    231201862095                       # Energy for self refresh per rank (pJ)
system.mem_ctrls1_0.totalEnergy          255469692690                       # Total energy per rank (pJ)
system.mem_ctrls1_0.averagePower           254.535370                       # Core power per rank (mW)
system.mem_ctrls1_0.totalIdleTime        1000100107958                       # Total Idle time Per DRAM Rank
system.mem_ctrls1_0.memoryStateTime::IDLE    588074367                       # Time in different power states
system.mem_ctrls1_0.memoryStateTime::REF   2043112000                       # Time in different power states
system.mem_ctrls1_0.memoryStateTime::SREF 958405427460                       # Time in different power states
system.mem_ctrls1_0.memoryStateTime::PRE_PDN  18457893566                       # Time in different power states
system.mem_ctrls1_0.memoryStateTime::ACT    918486198                       # Time in different power states
system.mem_ctrls1_0.memoryStateTime::ACT_PDN  23257704369                       # Time in different power states
system.mem_ctrls1_1.actEnergy                56784420                       # Energy for activate commands per rank (pJ)
system.mem_ctrls1_1.preEnergy                30181635                       # Energy for precharge commands per rank (pJ)
system.mem_ctrls1_1.readEnergy              146191500                       # Energy for read commands per rank (pJ)
system.mem_ctrls1_1.writeEnergy               3455640                       # Energy for write commands per rank (pJ)
system.mem_ctrls1_1.refreshEnergy        5848299600.000001                       # Energy for refresh commands per rank (pJ)
system.mem_ctrls1_1.actBackEnergy          1496214090                       # Energy for active background per rank (pJ)
system.mem_ctrls1_1.preBackEnergy           354446400                       # Energy for precharge background per rank (pJ)
system.mem_ctrls1_1.actPowerDownEnergy    12864506130                       # Energy for active power-down per rank (pJ)
system.mem_ctrls1_1.prePowerDownEnergy     8863398240                       # Energy for precharge power-down per rank (pJ)
system.mem_ctrls1_1.selfRefreshEnergy    228978012705                       # Energy for self refresh per rank (pJ)
system.mem_ctrls1_1.totalEnergy          258644398440                       # Total energy per rank (pJ)
system.mem_ctrls1_1.averagePower           257.698465                       # Core power per rank (mW)
system.mem_ctrls1_1.totalIdleTime        999303512319                       # Total Idle time Per DRAM Rank
system.mem_ctrls1_1.memoryStateTime::IDLE    720021540                       # Time in different power states
system.mem_ctrls1_1.memoryStateTime::REF   2489542000                       # Time in different power states
system.mem_ctrls1_1.memoryStateTime::SREF 948166653960                       # Time in different power states
system.mem_ctrls1_1.memoryStateTime::PRE_PDN  23081847884                       # Time in different power states
system.mem_ctrls1_1.memoryStateTime::ACT   1000934325                       # Time in different power states
system.mem_ctrls1_1.memoryStateTime::ACT_PDN  28211698251                       # Time in different power states
system.pwrStateResidencyTicks::UNDEFINED 176554954819827                       # Cumulative time (in ticks) in various power states
system.cpu.branchPred.lookups                       4                       # Number of BP lookups
system.cpu.branchPred.condPredicted                 2                       # Number of conditional branches predicted
system.cpu.branchPred.condIncorrect                 1                       # Number of conditional branches incorrect
system.cpu.branchPred.BTBLookups                    2                       # Number of BTB lookups
system.cpu.branchPred.BTBHits                       0                       # Number of BTB hits
system.cpu.branchPred.BTBCorrect                    0                       # Number of correct BTB predictions (this stat may not work properly.
system.cpu.branchPred.BTBHitPct              0.000000                       # BTB Hit Percentage
system.cpu.branchPred.usedRAS                       0                       # Number of times the RAS was used to get a target.
system.cpu.branchPred.RASInCorrect                  0                       # Number of incorrect RAS predictions.
system.cpu.branchPred.indirectLookups               0                       # Number of indirect predictor lookups.
system.cpu.branchPred.indirectHits                  0                       # Number of indirect target hits.
system.cpu.branchPred.indirectMisses                0                       # Number of indirect misses.
system.cpu.branchPredindirectMispredicted            0                       # Number of mispredicted indirect branches.
system.cpu_voltage_domain.voltage                   1                       # Voltage in Volts
system.cpu_clk_domain.clock                       333                       # Clock period in ticks
system.cpu.dtb.fetch_hits                           0                       # ITB hits
system.cpu.dtb.fetch_misses                         0                       # ITB misses
system.cpu.dtb.fetch_acv                            0                       # ITB acv
system.cpu.dtb.fetch_accesses                       0                       # ITB accesses
system.cpu.dtb.read_hits                           10                       # DTB read hits
system.cpu.dtb.read_misses                          0                       # DTB read misses
system.cpu.dtb.read_acv                             0                       # DTB read access violations
system.cpu.dtb.read_accesses                       10                       # DTB read accesses
system.cpu.dtb.write_hits                           0                       # DTB write hits
system.cpu.dtb.write_misses                         0                       # DTB write misses
system.cpu.dtb.write_acv                            0                       # DTB write access violations
system.cpu.dtb.write_accesses                       0                       # DTB write accesses
system.cpu.dtb.data_hits                           10                       # DTB hits
system.cpu.dtb.data_misses                          0                       # DTB misses
system.cpu.dtb.data_acv                             0                       # DTB access violations
system.cpu.dtb.data_accesses                       10                       # DTB accesses
system.cpu.itb.fetch_hits                           5                       # ITB hits
system.cpu.itb.fetch_misses                         0                       # ITB misses
system.cpu.itb.fetch_acv                            0                       # ITB acv
system.cpu.itb.fetch_accesses                       5                       # ITB accesses
system.cpu.itb.read_hits                            0                       # DTB read hits
system.cpu.itb.read_misses                          0                       # DTB read misses
system.cpu.itb.read_acv                             0                       # DTB read access violations
system.cpu.itb.read_accesses                        0                       # DTB read accesses
system.cpu.itb.write_hits                           0                       # DTB write hits
system.cpu.itb.write_misses                         0                       # DTB write misses
system.cpu.itb.write_acv                            0                       # DTB write access violations
system.cpu.itb.write_accesses                       0                       # DTB write accesses
system.cpu.itb.data_hits                            0                       # DTB hits
system.cpu.itb.data_misses                          0                       # DTB misses
system.cpu.itb.data_acv                             0                       # DTB access violations
system.cpu.itb.data_accesses                        0                       # DTB accesses
system.cpu.workload.num_syscalls                    0                       # Number of system calls
system.cpu.pwrStateResidencyTicks::ON    1003670697960                       # Cumulative time (in ticks) in various power states
system.cpu.numCycles                              567                       # number of cpu cycles simulated
system.cpu.numWorkItemsStarted                      0                       # number of work items this cpu started
system.cpu.numWorkItemsCompleted                    0                       # number of work items this cpu completed
system.cpu.fetch.icacheStallCycles                 47                       # Number of cycles fetch is stalled on an Icache miss
system.cpu.fetch.Insts                             32                       # Number of instructions fetch has processed
system.cpu.fetch.Branches                           4                       # Number of branches that fetch encountered
system.cpu.fetch.Cycles                             4                       # Number of cycles fetch has run and was not squashing or blocked
system.cpu.fetch.SquashCycles                       5                       # Number of cycles fetch has spent squashing
system.cpu.fetch.PendingDrainCycles                 7                       # Number of cycles fetch has spent waiting on pipes to drain
system.cpu.fetch.CacheLines                         5                       # Number of cache lines fetched
system.cpu.fetch.IcacheSquashes                     3                       # Number of outstanding Icache misses that were squashed
system.cpu.fetch.rateDist::samples                 60                       # Number of instructions fetched each cycle (Total)
system.cpu.fetch.rateDist::mean              0.533333                       # Number of instructions fetched each cycle (Total)
system.cpu.fetch.rateDist::stdev             2.012391                       # Number of instructions fetched each cycle (Total)
system.cpu.fetch.rateDist::underflows               0      0.00%      0.00% # Number of instructions fetched each cycle (Total)
system.cpu.fetch.rateDist::0                       56     93.33%     93.33% # Number of instructions fetched each cycle (Total)
system.cpu.fetch.rateDist::1                        0      0.00%     93.33% # Number of instructions fetched each cycle (Total)
system.cpu.fetch.rateDist::2                        0      0.00%     93.33% # Number of instructions fetched each cycle (Total)
system.cpu.fetch.rateDist::3                        0      0.00%     93.33% # Number of instructions fetched each cycle (Total)
system.cpu.fetch.rateDist::4                        0      0.00%     93.33% # Number of instructions fetched each cycle (Total)
system.cpu.fetch.rateDist::5                        0      0.00%     93.33% # Number of instructions fetched each cycle (Total)
system.cpu.fetch.rateDist::6                        0      0.00%     93.33% # Number of instructions fetched each cycle (Total)
system.cpu.fetch.rateDist::7                        0      0.00%     93.33% # Number of instructions fetched each cycle (Total)
system.cpu.fetch.rateDist::8                        4      6.67%    100.00% # Number of instructions fetched each cycle (Total)
system.cpu.fetch.rateDist::overflows                0      0.00%    100.00% # Number of instructions fetched each cycle (Total)
[...]
system.switch_cpus_1.iq.int_inst_queue_writes    222026660                       # Number of integer instruction queue writes
system.switch_cpus_1.iq.int_inst_queue_wakeup_accesses    205819828                       # Number of integer instruction queue wakeup accesses
system.switch_cpus_1.iq.fp_inst_queue_reads      2763476                       # Number of floating instruction queue reads
system.switch_cpus_1.iq.fp_inst_queue_writes      1435071                       # Number of floating instruction queue writes
system.switch_cpus_1.iq.fp_inst_queue_wakeup_accesses      1371867                       # Number of floating instruction queue wakeup accesses
system.switch_cpus_1.iq.int_alu_accesses    217680920                       # Number of integer alu accesses
system.switch_cpus_1.iq.fp_alu_accesses       1385506                       # Number of floating point alu accesses
system.switch_cpus_1.iew.lsq.thread0.forwLoads      2864911                       # Number of loads that had data forwarded from stores
system.switch_cpus_1.iew.lsq.thread0.invAddrLoads            0                       # Number of loads ignored due to an invalid address
system.switch_cpus_1.iew.lsq.thread0.squashedLoads      2560383                       # Number of loads squashed
system.switch_cpus_1.iew.lsq.thread0.ignoredResponses         6704                       # Number of memory responses ignored because the instruction is squashed
system.switch_cpus_1.iew.lsq.thread0.memOrderViolation        15877                       # Number of memory ordering violations
system.switch_cpus_1.iew.lsq.thread0.squashedStores       575018                       # Number of stores squashed
system.switch_cpus_1.iew.lsq.thread0.invAddrSwpfs            0                       # Number of software prefetches ignored due to an invalid address
system.switch_cpus_1.iew.lsq.thread0.blockedLoads            0                       # Number of blocked loads due to partial load-store forwarding
system.switch_cpus_1.iew.lsq.thread0.rescheduledLoads         1087                       # Number of loads that were rescheduled
system.switch_cpus_1.iew.lsq.thread0.cacheBlocked       508292                       # Number of times an access to memory failed due to the cache being blocked
system.switch_cpus_1.iew.iewIdleCycles              0                       # Number of cycles IEW is idle
system.switch_cpus_1.iew.iewSquashCycles       312248                       # Number of cycles IEW is squashing
system.switch_cpus_1.iew.iewBlockCycles       1464373                       # Number of cycles IEW is blocking
system.switch_cpus_1.iew.iewUnblockCycles      1380238                       # Number of cycles IEW is unblocking
system.switch_cpus_1.iew.iewDispatchedInsts    212902704                       # Number of instructions dispatched to IQ
system.switch_cpus_1.iew.iewDispSquashedInsts        56555                       # Number of squashed instructions skipped by dispatch
system.switch_cpus_1.iew.iewDispLoadInsts     72227858                       # Number of dispatched load instructions
system.switch_cpus_1.iew.iewDispStoreInsts     13485440                       # Number of dispatched store instructions
system.switch_cpus_1.iew.iewDispNonSpecInsts            0                       # Number of dispatched non-speculative instructions
system.switch_cpus_1.iew.iewIQFullEvents        10059                       # Number of times the IQ has become full, causing a stall
system.switch_cpus_1.iew.iewLSQFullEvents      1374078                       # Number of times the LSQ has become full, causing a stall
system.switch_cpus_1.iew.memOrderViolationEvents        15877                       # Number of memory order violations
system.switch_cpus_1.iew.predictedTakenIncorrect       214960                       # Number of branches that were predicted taken incorrectly
system.switch_cpus_1.iew.predictedNotTakenIncorrect        80666                       # Number of branches that were predicted not taken incorrectly
system.switch_cpus_1.iew.branchMispredicts       295626                       # Number of branch mispredicts detected at execute
system.switch_cpus_1.iew.iewExecutedInsts    208280588                       # Number of executed instructions
system.switch_cpus_1.iew.iewExecLoadInsts     72043360                       # Number of load instructions executed
system.switch_cpus_1.iew.iewExecSquashedInsts       537041                       # Number of squashed instructions skipped in execute
system.switch_cpus_1.iew.exec_swp                   0                       # number of swp insts executed
system.switch_cpus_1.iew.exec_nop             1179640                       # number of nop insts executed
system.switch_cpus_1.iew.exec_refs           85165382                       # number of memory reference insts executed
system.switch_cpus_1.iew.exec_branches       15123136                       # Number of branches executed
system.switch_cpus_1.iew.exec_stores         13122022                       # Number of stores executed
system.switch_cpus_1.iew.exec_rate           2.826164                       # Inst execution rate
system.switch_cpus_1.iew.wb_sent            207476073                       # cumulative count of insts sent to commit
system.switch_cpus_1.iew.wb_count           207191695                       # cumulative count of insts written-back
system.switch_cpus_1.iew.wb_producers       133738026                       # num instructions producing a value
system.switch_cpus_1.iew.wb_consumers       163106703                       # num instructions consuming a value
system.switch_cpus_1.iew.wb_rate             2.811388                       # insts written-back per cycle
system.switch_cpus_1.iew.wb_fanout           0.819942                       # average fanout of values written-back
system.switch_cpus_1.commit.commitSquashedInsts     11322499                       # The number of squashed insts skipped by commit
system.switch_cpus_1.commit.branchMispredicts       272272                       # The number of times a branch was mispredicted
system.switch_cpus_1.commit.committed_per_cycle::samples     71853068                       # Number of insts commited each cycle
system.switch_cpus_1.commit.committed_per_cycle::mean     2.798288                       # Number of insts commited each cycle
system.switch_cpus_1.commit.committed_per_cycle::stdev     3.188893                       # Number of insts commited each cycle
system.switch_cpus_1.commit.committed_per_cycle::underflows            0      0.00%      0.00% # Number of insts commited each cycle
system.switch_cpus_1.commit.committed_per_cycle::0     29311238     40.79%     40.79% # Number of insts commited each cycle
system.switch_cpus_1.commit.committed_per_cycle::1      9285222     12.92%     53.72% # Number of insts commited each cycle
system.switch_cpus_1.commit.committed_per_cycle::2      4767691      6.64%     60.35% # Number of insts commited each cycle
system.switch_cpus_1.commit.committed_per_cycle::3      3528447      4.91%     65.26% # Number of insts commited each cycle
system.switch_cpus_1.commit.committed_per_cycle::4      2665671      3.71%     68.97% # Number of insts commited each cycle
system.switch_cpus_1.commit.committed_per_cycle::5      3499631      4.87%     73.84% # Number of insts commited each cycle
system.switch_cpus_1.commit.committed_per_cycle::6      1554975      2.16%     76.01% # Number of insts commited each cycle
system.switch_cpus_1.commit.committed_per_cycle::7      3752593      5.22%     81.23% # Number of insts commited each cycle
system.switch_cpus_1.commit.committed_per_cycle::8     13487600     18.77%    100.00% # Number of insts commited each cycle
system.switch_cpus_1.commit.committed_per_cycle::overflows            0      0.00%    100.00% # Number of insts commited each cycle
system.switch_cpus_1.commit.committed_per_cycle::min_value            0                       # Number of insts commited each cycle
system.switch_cpus_1.commit.committed_per_cycle::max_value            8                       # Number of insts commited each cycle
system.switch_cpus_1.commit.committed_per_cycle::total     71853068                       # Number of insts commited each cycle
system.switch_cpus_1.commit.committedInsts    201065585                       # Number of instructions committed
system.switch_cpus_1.commit.committedOps    201065585                       # Number of ops (including micro ops) committed
system.switch_cpus_1.commit.swp_count               0                       # Number of s/w prefetches committed
system.switch_cpus_1.commit.refs             82577871                       # Number of memory references committed
system.switch_cpus_1.commit.loads            69667449                       # Number of loads committed
system.switch_cpus_1.commit.membars                 0                       # Number of memory barriers committed
system.switch_cpus_1.commit.branches         14245931                       # Number of branches committed
system.switch_cpus_1.commit.fp_insts          1340565                       # Number of committed floating point instructions.
system.switch_cpus_1.commit.int_insts       198509910                       # Number of committed integer instructions.
system.switch_cpus_1.commit.function_calls      2072159                       # Number of function calls committed.
system.switch_cpus_1.commit.op_class_0::No_OpClass      1225977      0.61%      0.61% # Class of committed instruction
system.switch_cpus_1.commit.op_class_0::IntAlu    115514890     57.45%     58.06% # Class of committed instruction
system.switch_cpus_1.commit.op_class_0::IntMult       939115      0.47%     58.53% # Class of committed instruction
system.switch_cpus_1.commit.op_class_0::IntDiv            0      0.00%     58.53% # Class of committed instruction
system.switch_cpus_1.commit.op_class_0::FloatAdd       455806      0.23%     58.75% # Class of committed instruction
system.switch_cpus_1.commit.op_class_0::FloatCmp        10815      0.01%     58.76% # Class of committed instruction
system.switch_cpus_1.commit.op_class_0::FloatCvt       252849      0.13%     58.89% # Class of committed instruction
system.switch_cpus_1.commit.op_class_0::FloatMult         8058      0.00%     58.89% # Class of committed instruction
system.switch_cpus_1.commit.op_class_0::FloatMultAcc            0      0.00%     58.89% # Class of committed instruction
system.switch_cpus_1.commit.op_class_0::FloatDiv        80200      0.04%     58.93% # Class of committed instruction
system.switch_cpus_1.commit.op_class_0::FloatMisc            0      0.00%     58.93% # Class of committed instruction
system.switch_cpus_1.commit.op_class_0::FloatSqrt            4      0.00%     58.93% # Class of committed instruction
system.switch_cpus_1.commit.op_class_0::SimdAdd            0      0.00%     58.93% # Class of committed instruction
system.switch_cpus_1.commit.op_class_0::SimdAddAcc            0      0.00%     58.93% # Class of committed instruction
system.switch_cpus_1.commit.op_class_0::SimdAlu            0      0.00%     58.93% # Class of committed instruction
system.switch_cpus_1.commit.op_class_0::SimdCmp            0      0.00%     58.93% # Class of committed instruction
system.switch_cpus_1.commit.op_class_0::SimdCvt            0      0.00%     58.93% # Class of committed instruction
system.switch_cpus_1.commit.op_class_0::SimdMisc            0      0.00%     58.93% # Class of committed instruction
system.switch_cpus_1.commit.op_class_0::SimdMult            0      0.00%     58.93% # Class of committed instruction
system.switch_cpus_1.commit.op_class_0::SimdMultAcc            0      0.00%     58.93% # Class of committed instruction
system.switch_cpus_1.commit.op_class_0::SimdShift            0      0.00%     58.93% # Class of committed instruction
system.switch_cpus_1.commit.op_class_0::SimdShiftAcc            0      0.00%     58.93% # Class of committed instruction
system.switch_cpus_1.commit.op_class_0::SimdSqrt            0      0.00%     58.93% # Class of committed instruction
system.switch_cpus_1.commit.op_class_0::SimdFloatAdd            0      0.00%     58.93% # Class of committed instruction
system.switch_cpus_1.commit.op_class_0::SimdFloatAlu            0      0.00%     58.93% # Class of committed instruction
system.switch_cpus_1.commit.op_class_0::SimdFloatCmp            0      0.00%     58.93% # Class of committed instruction
system.switch_cpus_1.commit.op_class_0::SimdFloatCvt            0      0.00%     58.93% # Class of committed instruction
system.switch_cpus_1.commit.op_class_0::SimdFloatDiv            0      0.00%     58.93% # Class of committed instruction
system.switch_cpus_1.commit.op_class_0::SimdFloatMisc            0      0.00%     58.93% # Class of committed instruction
system.switch_cpus_1.commit.op_class_0::SimdFloatMult            0      0.00%     58.93% # Class of committed instruction
system.switch_cpus_1.commit.op_class_0::SimdFloatMultAcc            0      0.00%     58.93% # Class of committed instruction
system.switch_cpus_1.commit.op_class_0::SimdFloatSqrt            0      0.00%     58.93% # Class of committed instruction
system.switch_cpus_1.commit.op_class_0::MemRead     69394564     34.51%     93.44% # Class of committed instruction
system.switch_cpus_1.commit.op_class_0::MemWrite     12650474      6.29%     99.73% # Class of committed instruction
system.switch_cpus_1.commit.op_class_0::FloatMemRead       272885      0.14%     99.87% # Class of committed instruction
system.switch_cpus_1.commit.op_class_0::FloatMemWrite       259948      0.13%    100.00% # Class of committed instruction
system.switch_cpus_1.commit.op_class_0::IprAccess            0      0.00%    100.00% # Class of committed instruction
system.switch_cpus_1.commit.op_class_0::InstPrefetch            0      0.00%    100.00% # Class of committed instruction
system.switch_cpus_1.commit.op_class_0::total    201065585                       # Class of committed instruction
system.switch_cpus_1.commit.bw_lim_events     13487600                       # number cycles where commit BW limit reached
system.switch_cpus_1.rob.rob_reads          270388421                       # The number of ROB reads
system.switch_cpus_1.rob.rob_writes         426350111                       # The number of ROB writes
system.switch_cpus_1.timesIdled                 13961                       # Number of times that the entire CPU went into an idle state and unscheduled itself
system.switch_cpus_1.idleCycles                272296                       # Total number of cycles that the CPU has spent unscheduled due to idling
system.switch_cpus_1.committedInsts         200000000                       # Number of Instructions Simulated
system.switch_cpus_1.committedOps           200000000                       # Number of Ops (including micro ops) Simulated
system.switch_cpus_1.cpi                     0.368486                       # CPI: Cycles Per Instruction
system.switch_cpus_1.cpi_total               0.368486                       # CPI: Total CPI of All Threads
system.switch_cpus_1.ipc                     2.713804                       # IPC: Instructions Per Cycle
system.switch_cpus_1.ipc_total               2.713804                       # IPC: Total IPC of All Threads
system.switch_cpus_1.int_regfile_reads      304030072                       # number of integer regfile reads
system.switch_cpus_1.int_regfile_writes     180077991                       # number of integer regfile writes
system.switch_cpus_1.fp_regfile_reads          984243                       # number of floating regfile reads
system.switch_cpus_1.fp_regfile_writes         922586                       # number of floating regfile writes
system.switch_cpus_1.misc_regfile_reads        167206                       # number of misc regfile reads
system.switch_cpus_1.misc_regfile_writes        80196                       # number of misc regfile writes
system.tol3bus.snoop_filter.tot_requests      3293667                       # Total number of requests made to the snoop filter.
system.tol3bus.snoop_filter.hit_single_requests      1644549                       # Number of requests hitting in the snoop filter with a single holder of the requested data.
system.tol3bus.snoop_filter.hit_multi_requests            0                       # Number of requests hitting in the snoop filter with multiple (>1) holders of the requested data.
system.tol3bus.snoop_filter.tot_snoops            145                       # Total number of snoops made to the snoop filter.
system.tol3bus.snoop_filter.hit_single_snoops          145                       # Number of snoops hitting in the snoop filter with a single holder of the requested data.
system.tol3bus.snoop_filter.hit_multi_snoops            0                       # Number of snoops hitting in the snoop filter with multiple (>1) holders of the requested data.
system.tol3bus.pwrStateResidencyTicks::UNDEFINED 176554954819827                       # Cumulative time (in ticks) in various power states
system.tol3bus.trans_dist::ReadResp            979003                       # Transaction distribution
system.tol3bus.trans_dist::WritebackDirty      1268948                       # Transaction distribution
system.tol3bus.trans_dist::CleanEvict          389880                       # Transaction distribution
system.tol3bus.trans_dist::UpgradeReq               3                       # Transaction distribution
system.tol3bus.trans_dist::UpgradeResp              3                       # Transaction distribution
system.tol3bus.trans_dist::ReadExReq           670115                       # Transaction distribution
system.tol3bus.trans_dist::ReadExResp          670115                       # Transaction distribution
system.tol3bus.trans_dist::ReadSharedReq       979003                       # Transaction distribution
system.tol3bus.pkt_count_system.cpu.l2.mem_side::system.l3.cpu_side      4942788                       # Packet count per connected master and slave (bytes)
system.tol3bus.pkt_size_system.cpu.l2.mem_side::system.l3.cpu_side    186602816                       # Cumulative packet size per connected master and slave (bytes)
system.tol3bus.snoops                           14282                       # Total snoops (count)
system.tol3bus.snoopTraffic                    153408                       # Total snoop traffic (bytes)
system.tol3bus.snoop_fanout::samples          1663403                       # Request fanout histogram
system.tol3bus.snoop_fanout::mean            0.000087                       # Request fanout histogram
system.tol3bus.snoop_fanout::stdev           0.009336                       # Request fanout histogram
system.tol3bus.snoop_fanout::underflows             0      0.00%      0.00% # Request fanout histogram
system.tol3bus.snoop_fanout::0                1663258     99.99%     99.99% # Request fanout histogram
system.tol3bus.snoop_fanout::1                    145      0.01%    100.00% # Request fanout histogram
system.tol3bus.snoop_fanout::overflows              0      0.00%    100.00% # Request fanout histogram
system.tol3bus.snoop_fanout::min_value              0                       # Request fanout histogram
system.tol3bus.snoop_fanout::max_value              1                       # Request fanout histogram
system.tol3bus.snoop_fanout::total            1663403                       # Request fanout histogram
system.tol3bus.reqLayer0.occupancy         1518552594                       # Layer occupancy (ticks)
system.tol3bus.reqLayer0.utilization              0.2                       # Layer utilization (%)
system.tol3bus.respLayer0.occupancy        1098313587                       # Layer occupancy (ticks)
system.tol3bus.respLayer0.utilization             0.1                       # Layer utilization (%)

---------- End Simulation Statistics   ----------
