
---------- Begin Simulation Statistics ----------
sim_seconds                                  5.062825                       # Number of seconds simulated
sim_ticks                                5062825191582                       # Number of ticks simulated
final_tick                               25047926551449                       # Number of ticks from beginning of simulation (restored from checkpoints and never reset)
sim_freq                                 1000000000000                       # Frequency of simulated ticks
host_inst_rate                                  75848                       # Simulator instruction rate (inst/s)
host_op_rate                                    75848                       # Simulator op (including micro ops) rate (op/s)
host_tick_rate                              320005263                       # Simulator tick rate (ticks/s)
host_mem_usage                                2453496                       # Number of bytes of host memory used
host_seconds                                 15821.07                       # Real time elapsed on the host
sim_insts                                  1200000007                       # Number of instructions simulated
sim_ops                                    1200000007                       # Number of ops (including micro ops) simulated
system.voltage_domain.voltage                       1                       # Voltage in Volts
system.clk_domain.clock                          1000                       # Clock period in ticks
system.mem_ctrls0.pwrStateResidencyTicks::UNDEFINED 25047926551449                       # Cumulative time (in ticks) in various power states
system.mem_ctrls0.bytes_read::cpu.inst             64                       # Number of bytes read from this memory
system.mem_ctrls0.bytes_read::cpu.data             64                       # Number of bytes read from this memory
system.mem_ctrls0.bytes_read::switch_cpus.inst         1152                       # Number of bytes read from this memory
system.mem_ctrls0.bytes_read::switch_cpus.data    950024000                       # Number of bytes read from this memory
system.mem_ctrls0.bytes_read::switch_cpus_1.data    193947392                       # Number of bytes read from this memory
system.mem_ctrls0.bytes_read::total        1143972672                       # Number of bytes read from this memory
system.mem_ctrls0.bytes_inst_read::cpu.inst           64                       # Number of instructions bytes read from this memory
system.mem_ctrls0.bytes_inst_read::switch_cpus.inst         1152                       # Number of instructions bytes read from this memory
system.mem_ctrls0.bytes_inst_read::total         1216                       # Number of instructions bytes read from this memory
system.mem_ctrls0.bytes_written::writebacks    837236864                       # Number of bytes written to this memory
system.mem_ctrls0.bytes_written::total      837236864                       # Number of bytes written to this memory
system.mem_ctrls0.num_reads::cpu.inst               1                       # Number of read requests responded to by this memory
system.mem_ctrls0.num_reads::cpu.data               1                       # Number of read requests responded to by this memory
system.mem_ctrls0.num_reads::switch_cpus.inst           18                       # Number of read requests responded to by this memory
system.mem_ctrls0.num_reads::switch_cpus.data     14844125                       # Number of read requests responded to by this memory
system.mem_ctrls0.num_reads::switch_cpus_1.data      3030428                       # Number of read requests responded to by this memory
system.mem_ctrls0.num_reads::total           17874573                       # Number of read requests responded to by this memory
system.mem_ctrls0.num_writes::writebacks     13081826                       # Number of write requests responded to by this memory
system.mem_ctrls0.num_writes::total          13081826                       # Number of write requests responded to by this memory
system.mem_ctrls0.bw_read::cpu.inst                13                       # Total read bandwidth from this memory (bytes/s)
system.mem_ctrls0.bw_read::cpu.data                13                       # Total read bandwidth from this memory (bytes/s)
system.mem_ctrls0.bw_read::switch_cpus.inst          228                       # Total read bandwidth from this memory (bytes/s)
system.mem_ctrls0.bw_read::switch_cpus.data    187647008                       # Total read bandwidth from this memory (bytes/s)
system.mem_ctrls0.bw_read::switch_cpus_1.data     38308135                       # Total read bandwidth from this memory (bytes/s)
system.mem_ctrls0.bw_read::total            225955396                       # Total read bandwidth from this memory (bytes/s)
system.mem_ctrls0.bw_inst_read::cpu.inst           13                       # Instruction read bandwidth from this memory (bytes/s)
system.mem_ctrls0.bw_inst_read::switch_cpus.inst          228                       # Instruction read bandwidth from this memory (bytes/s)
system.mem_ctrls0.bw_inst_read::total             240                       # Instruction read bandwidth from this memory (bytes/s)
system.mem_ctrls0.bw_write::writebacks      165369499                       # Write bandwidth from this memory (bytes/s)
system.mem_ctrls0.bw_write::total           165369499                       # Write bandwidth from this memory (bytes/s)
system.mem_ctrls0.bw_total::writebacks      165369499                       # Total bandwidth to/from this memory (bytes/s)
system.mem_ctrls0.bw_total::cpu.inst               13                       # Total bandwidth to/from this memory (bytes/s)
system.mem_ctrls0.bw_total::cpu.data               13                       # Total bandwidth to/from this memory (bytes/s)
system.mem_ctrls0.bw_total::switch_cpus.inst          228                       # Total bandwidth to/from this memory (bytes/s)
system.mem_ctrls0.bw_total::switch_cpus.data    187647008                       # Total bandwidth to/from this memory (bytes/s)
system.mem_ctrls0.bw_total::switch_cpus_1.data     38308135                       # Total bandwidth to/from this memory (bytes/s)
system.mem_ctrls0.bw_total::total           391324895                       # Total bandwidth to/from this memory (bytes/s)
system.mem_ctrls0.readReqs                   17874574                       # Number of read requests accepted
system.mem_ctrls0.writeReqs                  13081826                       # Number of write requests accepted
system.mem_ctrls0.readBursts                 17874574                       # Number of DRAM read bursts, including those serviced by the write queue
system.mem_ctrls0.writeBursts                13081826                       # Number of DRAM write bursts, including those merged in the write queue
system.mem_ctrls0.bytesReadDRAM            1143972736                       # Total number of bytes read from DRAM
system.mem_ctrls0.bytesReadWrQ                      0                       # Total number of bytes read from write queue
system.mem_ctrls0.bytesWritten              837235200                       # Total number of bytes written to DRAM
system.mem_ctrls0.bytesReadSys             1143972736                       # Total read bytes from the system interface side
system.mem_ctrls0.bytesWrittenSys           837236864                       # Total written bytes from the system interface side
system.mem_ctrls0.servicedByWrQ                     0                       # Number of DRAM read bursts serviced by the write queue
system.mem_ctrls0.mergedWrBursts                    0                       # Number of DRAM write bursts merged with an existing one
system.mem_ctrls0.neitherReadNorWriteReqs            0                       # Number of requests that are neither read nor write
system.mem_ctrls0.perBankRdBursts::0          1117325                       # Per bank write bursts
system.mem_ctrls0.perBankRdBursts::1          1109416                       # Per bank write bursts
system.mem_ctrls0.perBankRdBursts::2          1124272                       # Per bank write bursts
system.mem_ctrls0.perBankRdBursts::3          1123018                       # Per bank write bursts
system.mem_ctrls0.perBankRdBursts::4          1122718                       # Per bank write bursts
system.mem_ctrls0.perBankRdBursts::5          1115002                       # Per bank write bursts
system.mem_ctrls0.perBankRdBursts::6          1119349                       # Per bank write bursts
system.mem_ctrls0.perBankRdBursts::7          1131160                       # Per bank write bursts
system.mem_ctrls0.perBankRdBursts::8          1124525                       # Per bank write bursts
system.mem_ctrls0.perBankRdBursts::9          1118017                       # Per bank write bursts
system.mem_ctrls0.perBankRdBursts::10         1111456                       # Per bank write bursts
system.mem_ctrls0.perBankRdBursts::11         1107556                       # Per bank write bursts
system.mem_ctrls0.perBankRdBursts::12         1105022                       # Per bank write bursts
system.mem_ctrls0.perBankRdBursts::13         1117176                       # Per bank write bursts
system.mem_ctrls0.perBankRdBursts::14         1110412                       # Per bank write bursts
system.mem_ctrls0.perBankRdBursts::15         1118150                       # Per bank write bursts
system.mem_ctrls0.perBankWrBursts::0           818166                       # Per bank write bursts
system.mem_ctrls0.perBankWrBursts::1           810161                       # Per bank write bursts
system.mem_ctrls0.perBankWrBursts::2           824893                       # Per bank write bursts
system.mem_ctrls0.perBankWrBursts::3           823524                       # Per bank write bursts
system.mem_ctrls0.perBankWrBursts::4           823176                       # Per bank write bursts
system.mem_ctrls0.perBankWrBursts::5           815235                       # Per bank write bursts
system.mem_ctrls0.perBankWrBursts::6           819501                       # Per bank write bursts
system.mem_ctrls0.perBankWrBursts::7           831290                       # Per bank write bursts
system.mem_ctrls0.perBankWrBursts::8           824612                       # Per bank write bursts
system.mem_ctrls0.perBankWrBursts::9           818145                       # Per bank write bursts
system.mem_ctrls0.perBankWrBursts::10          811746                       # Per bank write bursts
system.mem_ctrls0.perBankWrBursts::11          807955                       # Per bank write bursts
system.mem_ctrls0.perBankWrBursts::12          805249                       # Per bank write bursts
system.mem_ctrls0.perBankWrBursts::13          817943                       # Per bank write bursts
system.mem_ctrls0.perBankWrBursts::14          811185                       # Per bank write bursts
system.mem_ctrls0.perBankWrBursts::15          819019                       # Per bank write bursts
system.mem_ctrls0.numRdRetry                        0                       # Number of times read queue was full causing retry
system.mem_ctrls0.numWrRetry                        0                       # Number of times write queue was full causing retry
system.mem_ctrls0.totGap                 5062825057050                       # Total gap between requests
system.mem_ctrls0.readPktSize::0                    0                       # Read request sizes (log2)
system.mem_ctrls0.readPktSize::1                    0                       # Read request sizes (log2)
system.mem_ctrls0.readPktSize::2                    0                       # Read request sizes (log2)
system.mem_ctrls0.readPktSize::3                    0                       # Read request sizes (log2)
system.mem_ctrls0.readPktSize::4                    0                       # Read request sizes (log2)
system.mem_ctrls0.readPktSize::5                    0                       # Read request sizes (log2)
system.mem_ctrls0.readPktSize::6             17874574                       # Read request sizes (log2)
system.mem_ctrls0.writePktSize::0                   0                       # Write request sizes (log2)
system.mem_ctrls0.writePktSize::1                   0                       # Write request sizes (log2)
system.mem_ctrls0.writePktSize::2                   0                       # Write request sizes (log2)
system.mem_ctrls0.writePktSize::3                   0                       # Write request sizes (log2)
system.mem_ctrls0.writePktSize::4                   0                       # Write request sizes (log2)
system.mem_ctrls0.writePktSize::5                   0                       # Write request sizes (log2)
system.mem_ctrls0.writePktSize::6            13081826                       # Write request sizes (log2)
system.mem_ctrls0.rdQLenPdf::0               16706889                       # What read queue length does an incoming req see
system.mem_ctrls0.rdQLenPdf::1                 915234                       # What read queue length does an incoming req see
system.mem_ctrls0.rdQLenPdf::2                 237476                       # What read queue length does an incoming req see
system.mem_ctrls0.rdQLenPdf::3                  14975                       # What read queue length does an incoming req see
system.mem_ctrls0.rdQLenPdf::4                      0                       # What read queue length does an incoming req see
system.mem_ctrls0.rdQLenPdf::5                      0                       # What read queue length does an incoming req see
system.mem_ctrls0.rdQLenPdf::6                      0                       # What read queue length does an incoming req see
system.mem_ctrls0.rdQLenPdf::7                      0                       # What read queue length does an incoming req see
system.mem_ctrls0.rdQLenPdf::8                      0                       # What read queue length does an incoming req see
system.mem_ctrls0.rdQLenPdf::9                      0                       # What read queue length does an incoming req see
system.mem_ctrls0.rdQLenPdf::10                     0                       # What read queue length does an incoming req see
system.mem_ctrls0.rdQLenPdf::11                     0                       # What read queue length does an incoming req see
system.mem_ctrls0.rdQLenPdf::12                     0                       # What read queue length does an incoming req see
system.mem_ctrls0.rdQLenPdf::13                     0                       # What read queue length does an incoming req see
system.mem_ctrls0.rdQLenPdf::14                     0                       # What read queue length does an incoming req see
system.mem_ctrls0.rdQLenPdf::15                     0                       # What read queue length does an incoming req see
system.mem_ctrls0.rdQLenPdf::16                     0                       # What read queue length does an incoming req see
system.mem_ctrls0.rdQLenPdf::17                     0                       # What read queue length does an incoming req see
system.mem_ctrls0.rdQLenPdf::18                     0                       # What read queue length does an incoming req see
system.mem_ctrls0.rdQLenPdf::19                     0                       # What read queue length does an incoming req see
system.mem_ctrls0.rdQLenPdf::20                     0                       # What read queue length does an incoming req see
system.mem_ctrls0.rdQLenPdf::21                     0                       # What read queue length does an incoming req see
system.mem_ctrls0.rdQLenPdf::22                     0                       # What read queue length does an incoming req see
system.mem_ctrls0.rdQLenPdf::23                     0                       # What read queue length does an incoming req see
system.mem_ctrls0.rdQLenPdf::24                     0                       # What read queue length does an incoming req see
system.mem_ctrls0.rdQLenPdf::25                     0                       # What read queue length does an incoming req see
system.mem_ctrls0.rdQLenPdf::26                     0                       # What read queue length does an incoming req see
system.mem_ctrls0.rdQLenPdf::27                     0                       # What read queue length does an incoming req see
system.mem_ctrls0.rdQLenPdf::28                     0                       # What read queue length does an incoming req see
system.mem_ctrls0.rdQLenPdf::29                     0                       # What read queue length does an incoming req see
system.mem_ctrls0.rdQLenPdf::30                     0                       # What read queue length does an incoming req see
system.mem_ctrls0.rdQLenPdf::31                     0                       # What read queue length does an incoming req see
system.mem_ctrls0.wrQLenPdf::0                      2                       # What write queue length does an incoming req see
system.mem_ctrls0.wrQLenPdf::1                      2                       # What write queue length does an incoming req see
system.mem_ctrls0.wrQLenPdf::2                      2                       # What write queue length does an incoming req see
system.mem_ctrls0.wrQLenPdf::3                      2                       # What write queue length does an incoming req see
system.mem_ctrls0.wrQLenPdf::4                      2                       # What write queue length does an incoming req see
system.mem_ctrls0.wrQLenPdf::5                      2                       # What write queue length does an incoming req see
system.mem_ctrls0.wrQLenPdf::6                      2                       # What write queue length does an incoming req see
system.mem_ctrls0.wrQLenPdf::7                      2                       # What write queue length does an incoming req see
system.mem_ctrls0.wrQLenPdf::8                      2                       # What write queue length does an incoming req see
system.mem_ctrls0.wrQLenPdf::9                      2                       # What write queue length does an incoming req see
system.mem_ctrls0.wrQLenPdf::10                     2                       # What write queue length does an incoming req see
system.mem_ctrls0.wrQLenPdf::11                     2                       # What write queue length does an incoming req see
system.mem_ctrls0.wrQLenPdf::12                     2                       # What write queue length does an incoming req see
system.mem_ctrls0.wrQLenPdf::13                     2                       # What write queue length does an incoming req see
system.mem_ctrls0.wrQLenPdf::14                     2                       # What write queue length does an incoming req see
system.mem_ctrls0.wrQLenPdf::15                385040                       # What write queue length does an incoming req see
system.mem_ctrls0.wrQLenPdf::16                413040                       # What write queue length does an incoming req see
system.mem_ctrls0.wrQLenPdf::17                692904                       # What write queue length does an incoming req see
system.mem_ctrls0.wrQLenPdf::18                757276                       # What write queue length does an incoming req see
system.mem_ctrls0.wrQLenPdf::19                769587                       # What write queue length does an incoming req see
system.mem_ctrls0.wrQLenPdf::20                771578                       # What write queue length does an incoming req see
system.mem_ctrls0.wrQLenPdf::21                772168                       # What write queue length does an incoming req see
system.mem_ctrls0.wrQLenPdf::22                788879                       # What write queue length does an incoming req see
system.mem_ctrls0.wrQLenPdf::23                778677                       # What write queue length does an incoming req see
system.mem_ctrls0.wrQLenPdf::24                773252                       # What write queue length does an incoming req see
system.mem_ctrls0.wrQLenPdf::25                784057                       # What write queue length does an incoming req see
system.mem_ctrls0.wrQLenPdf::26                773749                       # What write queue length does an incoming req see
system.mem_ctrls0.wrQLenPdf::27                771683                       # What write queue length does an incoming req see
system.mem_ctrls0.wrQLenPdf::28                782863                       # What write queue length does an incoming req see
system.mem_ctrls0.wrQLenPdf::29                770834                       # What write queue length does an incoming req see
system.mem_ctrls0.wrQLenPdf::30                766049                       # What write queue length does an incoming req see
system.mem_ctrls0.wrQLenPdf::31                764044                       # What write queue length does an incoming req see
system.mem_ctrls0.wrQLenPdf::32                763797                       # What write queue length does an incoming req see
system.mem_ctrls0.wrQLenPdf::33                  1709                       # What write queue length does an incoming req see
system.mem_ctrls0.wrQLenPdf::34                   463                       # What write queue length does an incoming req see
system.mem_ctrls0.wrQLenPdf::35                   120                       # What write queue length does an incoming req see
system.mem_ctrls0.wrQLenPdf::36                    23                       # What write queue length does an incoming req see
system.mem_ctrls0.wrQLenPdf::37                     3                       # What write queue length does an incoming req see
system.mem_ctrls0.wrQLenPdf::38                     1                       # What write queue length does an incoming req see
system.mem_ctrls0.wrQLenPdf::39                     0                       # What write queue length does an incoming req see
system.mem_ctrls0.wrQLenPdf::40                     0                       # What write queue length does an incoming req see
system.mem_ctrls0.wrQLenPdf::41                     0                       # What write queue length does an incoming req see
system.mem_ctrls0.wrQLenPdf::42                     0                       # What write queue length does an incoming req see
system.mem_ctrls0.wrQLenPdf::43                     0                       # What write queue length does an incoming req see
system.mem_ctrls0.wrQLenPdf::44                     0                       # What write queue length does an incoming req see
system.mem_ctrls0.wrQLenPdf::45                     0                       # What write queue length does an incoming req see
system.mem_ctrls0.wrQLenPdf::46                     0                       # What write queue length does an incoming req see
system.mem_ctrls0.wrQLenPdf::47                     0                       # What write queue length does an incoming req see
system.mem_ctrls0.wrQLenPdf::48                     0                       # What write queue length does an incoming req see
system.mem_ctrls0.wrQLenPdf::49                     0                       # What write queue length does an incoming req see
system.mem_ctrls0.wrQLenPdf::50                     0                       # What write queue length does an incoming req see
system.mem_ctrls0.wrQLenPdf::51                     0                       # What write queue length does an incoming req see
system.mem_ctrls0.wrQLenPdf::52                     0                       # What write queue length does an incoming req see
system.mem_ctrls0.wrQLenPdf::53                     0                       # What write queue length does an incoming req see
system.mem_ctrls0.wrQLenPdf::54                     0                       # What write queue length does an incoming req see
system.mem_ctrls0.wrQLenPdf::55                     0                       # What write queue length does an incoming req see
system.mem_ctrls0.wrQLenPdf::56                     0                       # What write queue length does an incoming req see
system.mem_ctrls0.wrQLenPdf::57                     0                       # What write queue length does an incoming req see
system.mem_ctrls0.wrQLenPdf::58                     0                       # What write queue length does an incoming req see
system.mem_ctrls0.wrQLenPdf::59                     0                       # What write queue length does an incoming req see
system.mem_ctrls0.wrQLenPdf::60                     0                       # What write queue length does an incoming req see
system.mem_ctrls0.wrQLenPdf::61                     0                       # What write queue length does an incoming req see
system.mem_ctrls0.wrQLenPdf::62                     0                       # What write queue length does an incoming req see
system.mem_ctrls0.wrQLenPdf::63                     0                       # What write queue length does an incoming req see
system.mem_ctrls0.bytesPerActivate::samples     14157114                       # Bytes accessed per row activation
system.mem_ctrls0.bytesPerActivate::mean   139.944251                       # Bytes accessed per row activation
system.mem_ctrls0.bytesPerActivate::gmean   114.737904                       # Bytes accessed per row activation
system.mem_ctrls0.bytesPerActivate::stdev   103.712290                       # Bytes accessed per row activation
system.mem_ctrls0.bytesPerActivate::0-127      6199397     43.79%     43.79% # Bytes accessed per row activation
system.mem_ctrls0.bytesPerActivate::128-255      5853593     41.35%     85.14% # Bytes accessed per row activation
system.mem_ctrls0.bytesPerActivate::256-383      1514387     10.70%     95.83% # Bytes accessed per row activation
system.mem_ctrls0.bytesPerActivate::384-511       381428      2.69%     98.53% # Bytes accessed per row activation
system.mem_ctrls0.bytesPerActivate::512-639       115509      0.82%     99.34% # Bytes accessed per row activation
system.mem_ctrls0.bytesPerActivate::640-767        55259      0.39%     99.73% # Bytes accessed per row activation
system.mem_ctrls0.bytesPerActivate::768-895        23075      0.16%     99.90% # Bytes accessed per row activation
system.mem_ctrls0.bytesPerActivate::896-1023         8540      0.06%     99.96% # Bytes accessed per row activation
system.mem_ctrls0.bytesPerActivate::1024-1151         5926      0.04%    100.00% # Bytes accessed per row activation
system.mem_ctrls0.bytesPerActivate::total     14157114                       # Bytes accessed per row activation
system.mem_ctrls0.rdPerTurnAround::samples       763437                       # Reads before turning the bus around for writes
system.mem_ctrls0.rdPerTurnAround::mean     23.413277                       # Reads before turning the bus around for writes
system.mem_ctrls0.rdPerTurnAround::gmean    22.836511                       # Reads before turning the bus around for writes
system.mem_ctrls0.rdPerTurnAround::stdev    38.049315                       # Reads before turning the bus around for writes
system.mem_ctrls0.rdPerTurnAround::0-2047       763436    100.00%    100.00% # Reads before turning the bus around for writes
system.mem_ctrls0.rdPerTurnAround::32768-34815            1      0.00%    100.00% # Reads before turning the bus around for writes
system.mem_ctrls0.rdPerTurnAround::total       763437                       # Reads before turning the bus around for writes
system.mem_ctrls0.wrPerTurnAround::samples       763437                       # Writes before turning the bus around for reads
system.mem_ctrls0.wrPerTurnAround::mean     17.135402                       # Writes before turning the bus around for reads
system.mem_ctrls0.wrPerTurnAround::gmean    17.099738                       # Writes before turning the bus around for reads
system.mem_ctrls0.wrPerTurnAround::stdev     1.109812                       # Writes before turning the bus around for reads
system.mem_ctrls0.wrPerTurnAround::16          350139     45.86%     45.86% # Writes before turning the bus around for reads
system.mem_ctrls0.wrPerTurnAround::17           24238      3.17%     49.04% # Writes before turning the bus around for reads
system.mem_ctrls0.wrPerTurnAround::18          334064     43.76%     92.80% # Writes before turning the bus around for reads
system.mem_ctrls0.wrPerTurnAround::19           46703      6.12%     98.91% # Writes before turning the bus around for reads
system.mem_ctrls0.wrPerTurnAround::20            7329      0.96%     99.87% # Writes before turning the bus around for reads
system.mem_ctrls0.wrPerTurnAround::21             810      0.11%     99.98% # Writes before turning the bus around for reads
system.mem_ctrls0.wrPerTurnAround::22             124      0.02%    100.00% # Writes before turning the bus around for reads
system.mem_ctrls0.wrPerTurnAround::23              22      0.00%    100.00% # Writes before turning the bus around for reads
system.mem_ctrls0.wrPerTurnAround::24               6      0.00%    100.00% # Writes before turning the bus around for reads
system.mem_ctrls0.wrPerTurnAround::25               1      0.00%    100.00% # Writes before turning the bus around for reads
system.mem_ctrls0.wrPerTurnAround::28               1      0.00%    100.00% # Writes before turning the bus around for reads
system.mem_ctrls0.wrPerTurnAround::total       763437                       # Writes before turning the bus around for reads
system.mem_ctrls0.totQLat                445567713366                       # Total ticks spent queuing
system.mem_ctrls0.totMemAccLat           780715975866                       # Total ticks spent from burst creation until serviced by the DRAM
system.mem_ctrls0.totBusLat               89372870000                       # Total ticks spent in databus transfers
system.mem_ctrls0.avgQLat                    24927.46                       # Average queueing delay per DRAM burst
system.mem_ctrls0.avgBusLat                   5000.00                       # Average bus latency per DRAM burst
system.mem_ctrls0.avgMemAccLat               43677.46                       # Average memory access latency per DRAM burst
system.mem_ctrls0.avgRdBW                      225.96                       # Average DRAM read bandwidth in MiByte/s
system.mem_ctrls0.avgWrBW                      165.37                       # Average achieved write bandwidth in MiByte/s
system.mem_ctrls0.avgRdBWSys                   225.96                       # Average system read bandwidth in MiByte/s
system.mem_ctrls0.avgWrBWSys                   165.37                       # Average system write bandwidth in MiByte/s
system.mem_ctrls0.peakBW                     12800.00                       # Theoretical peak bandwidth in MiByte/s
system.mem_ctrls0.busUtil                        3.06                       # Data bus utilization in percentage
system.mem_ctrls0.busUtilRead                    1.77                       # Data bus utilization in percentage for reads
system.mem_ctrls0.busUtilWrite                   1.29                       # Data bus utilization in percentage for writes
system.mem_ctrls0.avgRdQLen                      1.03                       # Average read queue length when enqueuing
system.mem_ctrls0.avgWrQLen                     24.92                       # Average write queue length when enqueuing
system.mem_ctrls0.readRowHits                 8490274                       # Number of row buffer hits during reads
system.mem_ctrls0.writeRowHits                8308976                       # Number of row buffer hits during writes
system.mem_ctrls0.readRowHitRate                47.50                       # Row buffer hit rate for reads
system.mem_ctrls0.writeRowHitRate               63.52                       # Row buffer hit rate for writes
system.mem_ctrls0.avgGap                    163546.96                       # Average gap between requests
system.mem_ctrls0.pageHitRate                   54.27                       # Row buffer hit rate, read and write combined
system.mem_ctrls0_0.actEnergy             50683354260                       # Energy for activate commands per rank (pJ)
system.mem_ctrls0_0.preEnergy             26938826475                       # Energy for precharge commands per rank (pJ)
system.mem_ctrls0_0.readEnergy            63990536400                       # Energy for read commands per rank (pJ)
system.mem_ctrls0_0.writeEnergy           34274238120                       # Energy for write commands per rank (pJ)
system.mem_ctrls0_0.refreshEnergy        409176911520.000061                       # Energy for refresh commands per rank (pJ)
system.mem_ctrls0_0.actBackEnergy        520294372650                       # Energy for active background per rank (pJ)
system.mem_ctrls0_0.preBackEnergy         14861315520                       # Energy for precharge background per rank (pJ)
system.mem_ctrls0_0.actPowerDownEnergy   1399616639160                       # Energy for active power-down per rank (pJ)
system.mem_ctrls0_0.prePowerDownEnergy   283604149440                       # Energy for precharge power-down per rank (pJ)
system.mem_ctrls0_0.selfRefreshEnergy     33026352180                       # Energy for self refresh per rank (pJ)
system.mem_ctrls0_0.totalEnergy          2836671154425                       # Total energy per rank (pJ)
system.mem_ctrls0_0.averagePower           560.294098                       # Core power per rank (mW)
system.mem_ctrls0_0.totalIdleTime        3882678507363                       # Total Idle time Per DRAM Rank
system.mem_ctrls0_0.memoryStateTime::IDLE  18811219939                       # Time in different power states
system.mem_ctrls0_0.memoryStateTime::REF 173261226000                       # Time in different power states
system.mem_ctrls0_0.memoryStateTime::SREF  74785537992                       # Time in different power states
system.mem_ctrls0_0.memoryStateTime::PRE_PDN 738550650767                       # Time in different power states
system.mem_ctrls0_0.memoryStateTime::ACT 988074238280                       # Time in different power states
system.mem_ctrls0_0.memoryStateTime::ACT_PDN 3069342318604                       # Time in different power states
system.mem_ctrls0_1.actEnergy             50398503960                       # Energy for activate commands per rank (pJ)
system.mem_ctrls0_1.preEnergy             26787417360                       # Energy for precharge commands per rank (pJ)
system.mem_ctrls0_1.readEnergy            63633914820                       # Energy for read commands per rank (pJ)
system.mem_ctrls0_1.writeEnergy           34012757880                       # Energy for write commands per rank (pJ)
system.mem_ctrls0_1.refreshEnergy        409786634400.000061                       # Energy for refresh commands per rank (pJ)
system.mem_ctrls0_1.actBackEnergy        520403490030                       # Energy for active background per rank (pJ)
system.mem_ctrls0_1.preBackEnergy         15175947360                       # Energy for precharge background per rank (pJ)
system.mem_ctrls0_1.actPowerDownEnergy   1393997700570                       # Energy for active power-down per rank (pJ)
system.mem_ctrls0_1.prePowerDownEnergy   286138176000                       # Energy for precharge power-down per rank (pJ)
system.mem_ctrls0_1.selfRefreshEnergy     35089455510                       # Energy for self refresh per rank (pJ)
system.mem_ctrls0_1.totalEnergy          2835628998720                       # Total energy per rank (pJ)
system.mem_ctrls0_1.averagePower           560.088250                       # Core power per rank (mW)
system.mem_ctrls0_1.totalIdleTime        3881611179466                       # Total Idle time Per DRAM Rank
system.mem_ctrls0_1.memoryStateTime::IDLE  19674623141                       # Time in different power states
system.mem_ctrls0_1.memoryStateTime::REF 173529616000                       # Time in different power states
system.mem_ctrls0_1.memoryStateTime::SREF  79448921653                       # Time in different power states
system.mem_ctrls0_1.memoryStateTime::PRE_PDN 745150312493                       # Time in different power states
system.mem_ctrls0_1.memoryStateTime::ACT 988009772975                       # Time in different power states
system.mem_ctrls0_1.memoryStateTime::ACT_PDN 3057011945320                       # Time in different power states
system.mem_ctrls1.pwrStateResidencyTicks::UNDEFINED 25047926551449                       # Cumulative time (in ticks) in various power states
system.mem_ctrls1.bytes_read::cpu.inst            128                       # Number of bytes read from this memory
system.mem_ctrls1.bytes_read::cpu.data            128                       # Number of bytes read from this memory
system.mem_ctrls1.bytes_read::switch_cpus.inst          896                       # Number of bytes read from this memory
system.mem_ctrls1.bytes_read::switch_cpus.data    950023616                       # Number of bytes read from this memory
system.mem_ctrls1.bytes_read::switch_cpus_1.data    193926720                       # Number of bytes read from this memory
system.mem_ctrls1.bytes_read::total        1143951488                       # Number of bytes read from this memory
system.mem_ctrls1.bytes_inst_read::cpu.inst          128                       # Number of instructions bytes read from this memory
system.mem_ctrls1.bytes_inst_read::switch_cpus.inst          896                       # Number of instructions bytes read from this memory
system.mem_ctrls1.bytes_inst_read::total         1024                       # Number of instructions bytes read from this memory
system.mem_ctrls1.bytes_written::writebacks    837234880                       # Number of bytes written to this memory
system.mem_ctrls1.bytes_written::total      837234880                       # Number of bytes written to this memory
system.mem_ctrls1.num_reads::cpu.inst               2                       # Number of read requests responded to by this memory
system.mem_ctrls1.num_reads::cpu.data               2                       # Number of read requests responded to by this memory
system.mem_ctrls1.num_reads::switch_cpus.inst           14                       # Number of read requests responded to by this memory
system.mem_ctrls1.num_reads::switch_cpus.data     14844119                       # Number of read requests responded to by this memory
system.mem_ctrls1.num_reads::switch_cpus_1.data      3030105                       # Number of read requests responded to by this memory
system.mem_ctrls1.num_reads::total           17874242                       # Number of read requests responded to by this memory
system.mem_ctrls1.num_writes::writebacks     13081795                       # Number of write requests responded to by this memory
system.mem_ctrls1.num_writes::total          13081795                       # Number of write requests responded to by this memory
system.mem_ctrls1.bw_read::cpu.inst                25                       # Total read bandwidth from this memory (bytes/s)
system.mem_ctrls1.bw_read::cpu.data                25                       # Total read bandwidth from this memory (bytes/s)
system.mem_ctrls1.bw_read::switch_cpus.inst          177                       # Total read bandwidth from this memory (bytes/s)
system.mem_ctrls1.bw_read::switch_cpus.data    187646932                       # Total read bandwidth from this memory (bytes/s)
system.mem_ctrls1.bw_read::switch_cpus_1.data     38304052                       # Total read bandwidth from this memory (bytes/s)
system.mem_ctrls1.bw_read::total            225951212                       # Total read bandwidth from this memory (bytes/s)
system.mem_ctrls1.bw_inst_read::cpu.inst           25                       # Instruction read bandwidth from this memory (bytes/s)
system.mem_ctrls1.bw_inst_read::switch_cpus.inst          177                       # Instruction read bandwidth from this memory (bytes/s)
system.mem_ctrls1.bw_inst_read::total             202                       # Instruction read bandwidth from this memory (bytes/s)
system.mem_ctrls1.bw_write::writebacks      165369107                       # Write bandwidth from this memory (bytes/s)
system.mem_ctrls1.bw_write::total           165369107                       # Write bandwidth from this memory (bytes/s)
system.mem_ctrls1.bw_total::writebacks      165369107                       # Total bandwidth to/from this memory (bytes/s)
system.mem_ctrls1.bw_total::cpu.inst               25                       # Total bandwidth to/from this memory (bytes/s)
system.mem_ctrls1.bw_total::cpu.data               25                       # Total bandwidth to/from this memory (bytes/s)
system.mem_ctrls1.bw_total::switch_cpus.inst          177                       # Total bandwidth to/from this memory (bytes/s)
system.mem_ctrls1.bw_total::switch_cpus.data    187646932                       # Total bandwidth to/from this memory (bytes/s)
system.mem_ctrls1.bw_total::switch_cpus_1.data     38304052                       # Total bandwidth to/from this memory (bytes/s)
system.mem_ctrls1.bw_total::total           391320319                       # Total bandwidth to/from this memory (bytes/s)
system.mem_ctrls1.readReqs                   17874242                       # Number of read requests accepted
system.mem_ctrls1.writeReqs                  13081795                       # Number of write requests accepted
system.mem_ctrls1.readBursts                 17874242                       # Number of DRAM read bursts, including those serviced by the write queue
system.mem_ctrls1.writeBursts                13081795                       # Number of DRAM write bursts, including those merged in the write queue
system.mem_ctrls1.bytesReadDRAM            1143951488                       # Total number of bytes read from DRAM
system.mem_ctrls1.bytesReadWrQ                      0                       # Total number of bytes read from write queue
system.mem_ctrls1.bytesWritten              837232832                       # Total number of bytes written to DRAM
system.mem_ctrls1.bytesReadSys             1143951488                       # Total read bytes from the system interface side
system.mem_ctrls1.bytesWrittenSys           837234880                       # Total written bytes from the system interface side
system.mem_ctrls1.servicedByWrQ                     0                       # Number of DRAM read bursts serviced by the write queue
system.mem_ctrls1.mergedWrBursts                    0                       # Number of DRAM write bursts merged with an existing one
system.mem_ctrls1.neitherReadNorWriteReqs            0                       # Number of requests that are neither read nor write
system.mem_ctrls1.perBankRdBursts::0          1117360                       # Per bank write bursts
system.mem_ctrls1.perBankRdBursts::1          1109449                       # Per bank write bursts
system.mem_ctrls1.perBankRdBursts::2          1124238                       # Per bank write bursts
system.mem_ctrls1.perBankRdBursts::3          1123051                       # Per bank write bursts
system.mem_ctrls1.perBankRdBursts::4          1122676                       # Per bank write bursts
system.mem_ctrls1.perBankRdBursts::5          1114987                       # Per bank write bursts
system.mem_ctrls1.perBankRdBursts::6          1119340                       # Per bank write bursts
system.mem_ctrls1.perBankRdBursts::7          1131171                       # Per bank write bursts
system.mem_ctrls1.perBankRdBursts::8          1124649                       # Per bank write bursts
system.mem_ctrls1.perBankRdBursts::9          1117906                       # Per bank write bursts
system.mem_ctrls1.perBankRdBursts::10         1111376                       # Per bank write bursts
system.mem_ctrls1.perBankRdBursts::11         1107621                       # Per bank write bursts
system.mem_ctrls1.perBankRdBursts::12         1104823                       # Per bank write bursts
system.mem_ctrls1.perBankRdBursts::13         1117230                       # Per bank write bursts
system.mem_ctrls1.perBankRdBursts::14         1110424                       # Per bank write bursts
system.mem_ctrls1.perBankRdBursts::15         1117941                       # Per bank write bursts
system.mem_ctrls1.perBankWrBursts::0           818188                       # Per bank write bursts
system.mem_ctrls1.perBankWrBursts::1           810206                       # Per bank write bursts
system.mem_ctrls1.perBankWrBursts::2           824870                       # Per bank write bursts
system.mem_ctrls1.perBankWrBursts::3           823581                       # Per bank write bursts
system.mem_ctrls1.perBankWrBursts::4           823120                       # Per bank write bursts
system.mem_ctrls1.perBankWrBursts::5           815218                       # Per bank write bursts
system.mem_ctrls1.perBankWrBursts::6           819497                       # Per bank write bursts
system.mem_ctrls1.perBankWrBursts::7           831305                       # Per bank write bursts
system.mem_ctrls1.perBankWrBursts::8           824758                       # Per bank write bursts
system.mem_ctrls1.perBankWrBursts::9           818029                       # Per bank write bursts
system.mem_ctrls1.perBankWrBursts::10          811658                       # Per bank write bursts
system.mem_ctrls1.perBankWrBursts::11          808035                       # Per bank write bursts
system.mem_ctrls1.perBankWrBursts::12          805277                       # Per bank write bursts
system.mem_ctrls1.perBankWrBursts::13          817999                       # Per bank write bursts
system.mem_ctrls1.perBankWrBursts::14          811204                       # Per bank write bursts
system.mem_ctrls1.perBankWrBursts::15          818818                       # Per bank write bursts
system.mem_ctrls1.numRdRetry                        0                       # Number of times read queue was full causing retry
system.mem_ctrls1.numWrRetry                        0                       # Number of times write queue was full causing retry
system.mem_ctrls1.totGap                 5062825159614                       # Total gap between requests
system.mem_ctrls1.readPktSize::0                    0                       # Read request sizes (log2)
system.mem_ctrls1.readPktSize::1                    0                       # Read request sizes (log2)
system.mem_ctrls1.readPktSize::2                    0                       # Read request sizes (log2)
system.mem_ctrls1.readPktSize::3                    0                       # Read request sizes (log2)
system.mem_ctrls1.readPktSize::4                    0                       # Read request sizes (log2)
system.mem_ctrls1.readPktSize::5                    0                       # Read request sizes (log2)
system.mem_ctrls1.readPktSize::6             17874242                       # Read request sizes (log2)
system.mem_ctrls1.writePktSize::0                   0                       # Write request sizes (log2)
system.mem_ctrls1.writePktSize::1                   0                       # Write request sizes (log2)
system.mem_ctrls1.writePktSize::2                   0                       # Write request sizes (log2)
system.mem_ctrls1.writePktSize::3                   0                       # Write request sizes (log2)
system.mem_ctrls1.writePktSize::4                   0                       # Write request sizes (log2)
system.mem_ctrls1.writePktSize::5                   0                       # Write request sizes (log2)
system.mem_ctrls1.writePktSize::6            13081795                       # Write request sizes (log2)
system.mem_ctrls1.rdQLenPdf::0               16706783                       # What read queue length does an incoming req see
system.mem_ctrls1.rdQLenPdf::1                 914828                       # What read queue length does an incoming req see
system.mem_ctrls1.rdQLenPdf::2                 237370                       # What read queue length does an incoming req see
system.mem_ctrls1.rdQLenPdf::3                  15261                       # What read queue length does an incoming req see
system.mem_ctrls1.rdQLenPdf::4                      0                       # What read queue length does an incoming req see
system.mem_ctrls1.rdQLenPdf::5                      0                       # What read queue length does an incoming req see
system.mem_ctrls1.rdQLenPdf::6                      0                       # What read queue length does an incoming req see
system.mem_ctrls1.rdQLenPdf::7                      0                       # What read queue length does an incoming req see
system.mem_ctrls1.rdQLenPdf::8                      0                       # What read queue length does an incoming req see
system.mem_ctrls1.rdQLenPdf::9                      0                       # What read queue length does an incoming req see
system.mem_ctrls1.rdQLenPdf::10                     0                       # What read queue length does an incoming req see
system.mem_ctrls1.rdQLenPdf::11                     0                       # What read queue length does an incoming req see
system.mem_ctrls1.rdQLenPdf::12                     0                       # What read queue length does an incoming req see
system.mem_ctrls1.rdQLenPdf::13                     0                       # What read queue length does an incoming req see
system.mem_ctrls1.rdQLenPdf::14                     0                       # What read queue length does an incoming req see
system.mem_ctrls1.rdQLenPdf::15                     0                       # What read queue length does an incoming req see
system.mem_ctrls1.rdQLenPdf::16                     0                       # What read queue length does an incoming req see
system.mem_ctrls1.rdQLenPdf::17                     0                       # What read queue length does an incoming req see
system.mem_ctrls1.rdQLenPdf::18                     0                       # What read queue length does an incoming req see
system.mem_ctrls1.rdQLenPdf::19                     0                       # What read queue length does an incoming req see
system.mem_ctrls1.rdQLenPdf::20                     0                       # What read queue length does an incoming req see
system.mem_ctrls1.rdQLenPdf::21                     0                       # What read queue length does an incoming req see
system.mem_ctrls1.rdQLenPdf::22                     0                       # What read queue length does an incoming req see
system.mem_ctrls1.rdQLenPdf::23                     0                       # What read queue length does an incoming req see
system.mem_ctrls1.rdQLenPdf::24                     0                       # What read queue length does an incoming req see
system.mem_ctrls1.rdQLenPdf::25                     0                       # What read queue length does an incoming req see
system.mem_ctrls1.rdQLenPdf::26                     0                       # What read queue length does an incoming req see
system.mem_ctrls1.rdQLenPdf::27                     0                       # What read queue length does an incoming req see
system.mem_ctrls1.rdQLenPdf::28                     0                       # What read queue length does an incoming req see
system.mem_ctrls1.rdQLenPdf::29                     0                       # What read queue length does an incoming req see
system.mem_ctrls1.rdQLenPdf::30                     0                       # What read queue length does an incoming req see
system.mem_ctrls1.rdQLenPdf::31                     0                       # What read queue length does an incoming req see
system.mem_ctrls1.wrQLenPdf::0                      2                       # What write queue length does an incoming req see
system.mem_ctrls1.wrQLenPdf::1                      2                       # What write queue length does an incoming req see
system.mem_ctrls1.wrQLenPdf::2                      2                       # What write queue length does an incoming req see
system.mem_ctrls1.wrQLenPdf::3                      2                       # What write queue length does an incoming req see
system.mem_ctrls1.wrQLenPdf::4                      2                       # What write queue length does an incoming req see
system.mem_ctrls1.wrQLenPdf::5                      2                       # What write queue length does an incoming req see
system.mem_ctrls1.wrQLenPdf::6                      2                       # What write queue length does an incoming req see
system.mem_ctrls1.wrQLenPdf::7                      2                       # What write queue length does an incoming req see
system.mem_ctrls1.wrQLenPdf::8                      2                       # What write queue length does an incoming req see
system.mem_ctrls1.wrQLenPdf::9                      2                       # What write queue length does an incoming req see
system.mem_ctrls1.wrQLenPdf::10                     2                       # What write queue length does an incoming req see
system.mem_ctrls1.wrQLenPdf::11                     2                       # What write queue length does an incoming req see
system.mem_ctrls1.wrQLenPdf::12                     2                       # What write queue length does an incoming req see
system.mem_ctrls1.wrQLenPdf::13                     2                       # What write queue length does an incoming req see
system.mem_ctrls1.wrQLenPdf::14                     2                       # What write queue length does an incoming req see
system.mem_ctrls1.wrQLenPdf::15                385414                       # What write queue length does an incoming req see
system.mem_ctrls1.wrQLenPdf::16                413466                       # What write queue length does an incoming req see
system.mem_ctrls1.wrQLenPdf::17                693207                       # What write queue length does an incoming req see
system.mem_ctrls1.wrQLenPdf::18                756981                       # What write queue length does an incoming req see
system.mem_ctrls1.wrQLenPdf::19                769718                       # What write queue length does an incoming req see
system.mem_ctrls1.wrQLenPdf::20                771497                       # What write queue length does an incoming req see
system.mem_ctrls1.wrQLenPdf::21                772026                       # What write queue length does an incoming req see
system.mem_ctrls1.wrQLenPdf::22                788737                       # What write queue length does an incoming req see
system.mem_ctrls1.wrQLenPdf::23                778569                       # What write queue length does an incoming req see
system.mem_ctrls1.wrQLenPdf::24                773026                       # What write queue length does an incoming req see
system.mem_ctrls1.wrQLenPdf::25                783991                       # What write queue length does an incoming req see
system.mem_ctrls1.wrQLenPdf::26                773765                       # What write queue length does an incoming req see
system.mem_ctrls1.wrQLenPdf::27                771737                       # What write queue length does an incoming req see
system.mem_ctrls1.wrQLenPdf::28                782646                       # What write queue length does an incoming req see
system.mem_ctrls1.wrQLenPdf::29                771069                       # What write queue length does an incoming req see
system.mem_ctrls1.wrQLenPdf::30                765964                       # What write queue length does an incoming req see
system.mem_ctrls1.wrQLenPdf::31                763980                       # What write queue length does an incoming req see
system.mem_ctrls1.wrQLenPdf::32                763748                       # What write queue length does an incoming req see
system.mem_ctrls1.wrQLenPdf::33                  1695                       # What write queue length does an incoming req see
system.mem_ctrls1.wrQLenPdf::34                   403                       # What write queue length does an incoming req see
system.mem_ctrls1.wrQLenPdf::35                   105                       # What write queue length does an incoming req see
system.mem_ctrls1.wrQLenPdf::36                    17                       # What write queue length does an incoming req see
system.mem_ctrls1.wrQLenPdf::37                     3                       # What write queue length does an incoming req see
system.mem_ctrls1.wrQLenPdf::38                     1                       # What write queue length does an incoming req see
system.mem_ctrls1.wrQLenPdf::39                     0                       # What write queue length does an incoming req see
system.mem_ctrls1.wrQLenPdf::40                     0                       # What write queue length does an incoming req see
system.mem_ctrls1.wrQLenPdf::41                     0                       # What write queue length does an incoming req see
system.mem_ctrls1.wrQLenPdf::42                     0                       # What write queue length does an incoming req see
system.mem_ctrls1.wrQLenPdf::43                     0                       # What write queue length does an incoming req see
system.mem_ctrls1.wrQLenPdf::44                     0                       # What write queue length does an incoming req see
system.mem_ctrls1.wrQLenPdf::45                     0                       # What write queue length does an incoming req see
system.mem_ctrls1.wrQLenPdf::46                     0                       # What write queue length does an incoming req see
system.mem_ctrls1.wrQLenPdf::47                     0                       # What write queue length does an incoming req see
system.mem_ctrls1.wrQLenPdf::48                     0                       # What write queue length does an incoming req see
system.mem_ctrls1.wrQLenPdf::49                     0                       # What write queue length does an incoming req see
system.mem_ctrls1.wrQLenPdf::50                     0                       # What write queue length does an incoming req see
system.mem_ctrls1.wrQLenPdf::51                     0                       # What write queue length does an incoming req see
system.mem_ctrls1.wrQLenPdf::52                     0                       # What write queue length does an incoming req see
system.mem_ctrls1.wrQLenPdf::53                     0                       # What write queue length does an incoming req see
system.mem_ctrls1.wrQLenPdf::54                     0                       # What write queue length does an incoming req see
system.mem_ctrls1.wrQLenPdf::55                     0                       # What write queue length does an incoming req see
system.mem_ctrls1.wrQLenPdf::56                     0                       # What write queue length does an incoming req see
system.mem_ctrls1.wrQLenPdf::57                     0                       # What write queue length does an incoming req see
system.mem_ctrls1.wrQLenPdf::58                     0                       # What write queue length does an incoming req see
system.mem_ctrls1.wrQLenPdf::59                     0                       # What write queue length does an incoming req see
system.mem_ctrls1.wrQLenPdf::60                     0                       # What write queue length does an incoming req see
system.mem_ctrls1.wrQLenPdf::61                     0                       # What write queue length does an incoming req see
system.mem_ctrls1.wrQLenPdf::62                     0                       # What write queue length does an incoming req see
system.mem_ctrls1.wrQLenPdf::63                     0                       # What write queue length does an incoming req see
system.mem_ctrls1.bytesPerActivate::samples     14159086                       # Bytes accessed per row activation
system.mem_ctrls1.bytesPerActivate::mean   139.923039                       # Bytes accessed per row activation
system.mem_ctrls1.bytesPerActivate::gmean   114.724606                       # Bytes accessed per row activation
system.mem_ctrls1.bytesPerActivate::stdev   103.690110                       # Bytes accessed per row activation
system.mem_ctrls1.bytesPerActivate::0-127      6200700     43.79%     43.79% # Bytes accessed per row activation
system.mem_ctrls1.bytesPerActivate::128-255      5854877     41.35%     85.14% # Bytes accessed per row activation
system.mem_ctrls1.bytesPerActivate::256-383      1513500     10.69%     95.83% # Bytes accessed per row activation
system.mem_ctrls1.bytesPerActivate::384-511       381517      2.69%     98.53% # Bytes accessed per row activation
system.mem_ctrls1.bytesPerActivate::512-639       115971      0.82%     99.35% # Bytes accessed per row activation
system.mem_ctrls1.bytesPerActivate::640-767        55146      0.39%     99.74% # Bytes accessed per row activation
system.mem_ctrls1.bytesPerActivate::768-895        22852      0.16%     99.90% # Bytes accessed per row activation
system.mem_ctrls1.bytesPerActivate::896-1023         8558      0.06%     99.96% # Bytes accessed per row activation
system.mem_ctrls1.bytesPerActivate::1024-1151         5965      0.04%    100.00% # Bytes accessed per row activation
system.mem_ctrls1.bytesPerActivate::total     14159086                       # Bytes accessed per row activation
system.mem_ctrls1.rdPerTurnAround::samples       763389                       # Reads before turning the bus around for writes
system.mem_ctrls1.rdPerTurnAround::mean     23.414305                       # Reads before turning the bus around for writes
system.mem_ctrls1.rdPerTurnAround::gmean    22.835937                       # Reads before turning the bus around for writes
system.mem_ctrls1.rdPerTurnAround::stdev    38.055061                       # Reads before turning the bus around for writes
system.mem_ctrls1.rdPerTurnAround::0-2047       763388    100.00%    100.00% # Reads before turning the bus around for writes
system.mem_ctrls1.rdPerTurnAround::32768-34815            1      0.00%    100.00% # Reads before turning the bus around for writes
system.mem_ctrls1.rdPerTurnAround::total       763389                       # Reads before turning the bus around for writes
system.mem_ctrls1.wrPerTurnAround::samples       763389                       # Writes before turning the bus around for reads
system.mem_ctrls1.wrPerTurnAround::mean     17.136431                       # Writes before turning the bus around for reads
system.mem_ctrls1.wrPerTurnAround::gmean    17.100766                       # Writes before turning the bus around for reads
system.mem_ctrls1.wrPerTurnAround::stdev     1.109795                       # Writes before turning the bus around for reads
system.mem_ctrls1.wrPerTurnAround::16          349716     45.81%     45.81% # Writes before turning the bus around for reads
system.mem_ctrls1.wrPerTurnAround::17           24332      3.19%     49.00% # Writes before turning the bus around for reads
system.mem_ctrls1.wrPerTurnAround::18          334351     43.80%     92.80% # Writes before turning the bus around for reads
system.mem_ctrls1.wrPerTurnAround::19           46624      6.11%     98.90% # Writes before turning the bus around for reads
system.mem_ctrls1.wrPerTurnAround::20            7373      0.97%     99.87% # Writes before turning the bus around for reads
system.mem_ctrls1.wrPerTurnAround::21             834      0.11%     99.98% # Writes before turning the bus around for reads
system.mem_ctrls1.wrPerTurnAround::22             144      0.02%    100.00% # Writes before turning the bus around for reads
system.mem_ctrls1.wrPerTurnAround::23              14      0.00%    100.00% # Writes before turning the bus around for reads
system.mem_ctrls1.wrPerTurnAround::25               1      0.00%    100.00% # Writes before turning the bus around for reads
system.mem_ctrls1.wrPerTurnAround::total       763389                       # Writes before turning the bus around for reads
system.mem_ctrls1.totQLat                445858677464                       # Total ticks spent queuing
system.mem_ctrls1.totMemAccLat           781000714964                       # Total ticks spent from burst creation until serviced by the DRAM
system.mem_ctrls1.totBusLat               89371210000                       # Total ticks spent in databus transfers
system.mem_ctrls1.avgQLat                    24944.20                       # Average queueing delay per DRAM burst
system.mem_ctrls1.avgBusLat                   5000.00                       # Average bus latency per DRAM burst
system.mem_ctrls1.avgMemAccLat               43694.20                       # Average memory access latency per DRAM burst
system.mem_ctrls1.avgRdBW                      225.95                       # Average DRAM read bandwidth in MiByte/s
system.mem_ctrls1.avgWrBW                      165.37                       # Average achieved write bandwidth in MiByte/s
system.mem_ctrls1.avgRdBWSys                   225.95                       # Average system read bandwidth in MiByte/s
system.mem_ctrls1.avgWrBWSys                   165.37                       # Average system write bandwidth in MiByte/s
system.mem_ctrls1.peakBW                     12800.00                       # Theoretical peak bandwidth in MiByte/s
system.mem_ctrls1.busUtil                        3.06                       # Data bus utilization in percentage
system.mem_ctrls1.busUtilRead                    1.77                       # Data bus utilization in percentage for reads
system.mem_ctrls1.busUtilWrite                   1.29                       # Data bus utilization in percentage for writes
system.mem_ctrls1.avgRdQLen                      1.03                       # Average read queue length when enqueuing
system.mem_ctrls1.avgWrQLen                     24.92                       # Average write queue length when enqueuing
system.mem_ctrls1.readRowHits                 8489776                       # Number of row buffer hits during reads
system.mem_ctrls1.writeRowHits                8307135                       # Number of row buffer hits during writes
system.mem_ctrls1.readRowHitRate                47.50                       # Row buffer hit rate for reads
system.mem_ctrls1.writeRowHitRate               63.50                       # Row buffer hit rate for writes
system.mem_ctrls1.avgGap                    163548.88                       # Average gap between requests
system.mem_ctrls1.pageHitRate                   54.26                       # Row buffer hit rate, read and write combined
system.mem_ctrls1_0.actEnergy             50685382020                       # Energy for activate commands per rank (pJ)
system.mem_ctrls1_0.preEnergy             26939911845                       # Energy for precharge commands per rank (pJ)
system.mem_ctrls1_0.readEnergy            63990622080                       # Energy for read commands per rank (pJ)
system.mem_ctrls1_0.writeEnergy           34274441700                       # Energy for write commands per rank (pJ)
system.mem_ctrls1_0.refreshEnergy        409146794160.000061                       # Energy for refresh commands per rank (pJ)
system.mem_ctrls1_0.actBackEnergy        521143897230                       # Energy for active background per rank (pJ)
system.mem_ctrls1_0.preBackEnergy         14815762560                       # Energy for precharge background per rank (pJ)
system.mem_ctrls1_0.actPowerDownEnergy   1399087833060                       # Energy for active power-down per rank (pJ)
system.mem_ctrls1_0.prePowerDownEnergy   283285348320                       # Energy for precharge power-down per rank (pJ)
system.mem_ctrls1_0.selfRefreshEnergy     33071615160                       # Energy for self refresh per rank (pJ)
system.mem_ctrls1_0.totalEnergy          2836634805285                       # Total energy per rank (pJ)
system.mem_ctrls1_0.averagePower           560.286919                       # Core power per rank (mW)
system.mem_ctrls1_0.totalIdleTime        3880954432648                       # Total Idle time Per DRAM Rank
system.mem_ctrls1_0.memoryStateTime::IDLE  18670834893                       # Time in different power states
system.mem_ctrls1_0.memoryStateTime::REF 173248954000                       # Time in different power states
system.mem_ctrls1_0.memoryStateTime::SREF  75056109354                       # Time in different power states
system.mem_ctrls1_0.memoryStateTime::PRE_PDN 737722081973                       # Time in different power states
system.mem_ctrls1_0.memoryStateTime::ACT 989950970041                       # Time in different power states
system.mem_ctrls1_0.memoryStateTime::ACT_PDN 3068176241321                       # Time in different power states
system.mem_ctrls1_1.actEnergy             50410549140                       # Energy for activate commands per rank (pJ)
system.mem_ctrls1_1.preEnergy             26793819525                       # Energy for precharge commands per rank (pJ)
system.mem_ctrls1_1.readEnergy            63631465800                       # Energy for read commands per rank (pJ)
system.mem_ctrls1_1.writeEnergy           34012361160                       # Energy for write commands per rank (pJ)
system.mem_ctrls1_1.refreshEnergy        409821668880.000061                       # Energy for refresh commands per rank (pJ)
system.mem_ctrls1_1.actBackEnergy        520461142110                       # Energy for active background per rank (pJ)
system.mem_ctrls1_1.preBackEnergy         15121807200                       # Energy for precharge background per rank (pJ)
system.mem_ctrls1_1.actPowerDownEnergy   1393950823770                       # Energy for active power-down per rank (pJ)
system.mem_ctrls1_1.prePowerDownEnergy   286449162240                       # Energy for precharge power-down per rank (pJ)
system.mem_ctrls1_1.selfRefreshEnergy     34905000240                       # Energy for self refresh per rank (pJ)
system.mem_ctrls1_1.totalEnergy          2835761059665                       # Total energy per rank (pJ)
system.mem_ctrls1_1.averagePower           560.114337                       # Core power per rank (mW)
system.mem_ctrls1_1.totalIdleTime        3881635971128                       # Total Idle time Per DRAM Rank
system.mem_ctrls1_1.memoryStateTime::IDLE  19507445853                       # Time in different power states
system.mem_ctrls1_1.memoryStateTime::REF 173544598000                       # Time in different power states
system.mem_ctrls1_1.memoryStateTime::SREF  78760143600                       # Time in different power states
system.mem_ctrls1_1.memoryStateTime::PRE_PDN 745960953045                       # Time in different power states
system.mem_ctrls1_1.memoryStateTime::ACT 988137063156                       # Time in different power states
system.mem_ctrls1_1.memoryStateTime::ACT_PDN 3056914987928                       # Time in different power states
system.pwrStateResidencyTicks::UNDEFINED 25047926551449                       # Cumulative time (in ticks) in various power states
system.cpu.branchPred.lookups                       0                       # Number of BP lookups
system.cpu.branchPred.condPredicted                 0                       # Number of conditional branches predicted
system.cpu.branchPred.condIncorrect                 0                       # Number of conditional branches incorrect
system.cpu.branchPred.BTBLookups                    0                       # Number of BTB lookups
system.cpu.branchPred.BTBHits                       0                       # Number of BTB hits
system.cpu.branchPred.BTBCorrect                    0                       # Number of correct BTB predictions (this stat may not work properly.
system.cpu.branchPred.BTBHitPct                   nan                       # BTB Hit Percentage
system.cpu.branchPred.usedRAS                       0                       # Number of times the RAS was used to get a target.
system.cpu.branchPred.RASInCorrect                  0                       # Number of incorrect RAS predictions.
system.cpu.branchPred.indirectLookups               0                       # Number of indirect predictor lookups.
system.cpu.branchPred.indirectHits                  0                       # Number of indirect target hits.
system.cpu.branchPred.indirectMisses                0                       # Number of indirect misses.
system.cpu.branchPredindirectMispredicted            0                       # Number of mispredicted indirect branches.
system.cpu_voltage_domain.voltage                   1                       # Voltage in Volts
system.cpu_clk_domain.clock                       333                       # Clock period in ticks
system.cpu.dtb.fetch_hits                           0                       # ITB hits
system.cpu.dtb.fetch_misses                         0                       # ITB misses
system.cpu.dtb.fetch_acv                            0                       # ITB acv
system.cpu.dtb.fetch_accesses                       0                       # ITB accesses
system.cpu.dtb.read_hits                           14                       # DTB read hits
system.cpu.dtb.read_misses                          0                       # DTB read misses
system.cpu.dtb.read_acv                             0                       # DTB read access violations
system.cpu.dtb.read_accesses                       14                       # DTB read accesses
system.cpu.dtb.write_hits                           1                       # DTB write hits
system.cpu.dtb.write_misses                         0                       # DTB write misses
system.cpu.dtb.write_acv                            0                       # DTB write access violations
system.cpu.dtb.write_accesses                       1                       # DTB write accesses
system.cpu.dtb.data_hits                           15                       # DTB hits
system.cpu.dtb.data_misses                          0                       # DTB misses
system.cpu.dtb.data_acv                             0                       # DTB access violations
system.cpu.dtb.data_accesses                       15                       # DTB accesses
system.cpu.itb.fetch_hits                           4                       # ITB hits
system.cpu.itb.fetch_misses                         0                       # ITB misses
system.cpu.itb.fetch_acv                            0                       # ITB acv
system.cpu.itb.fetch_accesses                       4                       # ITB accesses
system.cpu.itb.read_hits                            0                       # DTB read hits
system.cpu.itb.read_misses                          0                       # DTB read misses
system.cpu.itb.read_acv                             0                       # DTB read access violations
system.cpu.itb.read_accesses                        0                       # DTB read accesses
system.cpu.itb.write_hits                           0                       # DTB write hits
system.cpu.itb.write_misses                         0                       # DTB write misses
system.cpu.itb.write_acv                            0                       # DTB write access violations
system.cpu.itb.write_accesses                       0                       # DTB write accesses
system.cpu.itb.data_hits                            0                       # DTB hits
system.cpu.itb.data_misses                          0                       # DTB misses
system.cpu.itb.data_acv                             0                       # DTB access violations
system.cpu.itb.data_accesses                        0                       # DTB accesses
system.cpu.workload.num_syscalls                    0                       # Number of system calls
system.cpu.pwrStateResidencyTicks::ON    5062825191582                       # Cumulative time (in ticks) in various power states
system.cpu.numCycles                              727                       # number of cpu cycles simulated
system.cpu.numWorkItemsStarted                      0                       # number of work items this cpu started
system.cpu.numWorkItemsCompleted                    0                       # number of work items this cpu completed
system.cpu.fetch.icacheStallCycles                 63                       # Number of cycles fetch is stalled on an Icache miss
system.cpu.fetch.Insts                             29                       # Number of instructions fetch has processed
system.cpu.fetch.Cycles                             4                       # Number of cycles fetch has run and was not squashing or blocked
system.cpu.fetch.SquashCycles                       3                       # Number of cycles fetch has spent squashing
system.cpu.fetch.PendingDrainCycles                 8                       # Number of cycles fetch has spent waiting on pipes to drain
system.cpu.fetch.CacheLines                         4                       # Number of cache lines fetched
system.cpu.fetch.IcacheSquashes                     2                       # Number of outstanding Icache misses that were squashed
system.cpu.fetch.rateDist::samples                 76                       # Number of instructions fetched each cycle (Total)
system.cpu.fetch.rateDist::mean              0.381579                       # Number of instructions fetched each cycle (Total)
system.cpu.fetch.rateDist::stdev             1.657042                       # Number of instructions fetched each cycle (Total)
system.cpu.fetch.rateDist::underflows               0      0.00%      0.00% # Number of instructions fetched each cycle (Total)
system.cpu.fetch.rateDist::0                       72     94.74%     94.74% # Number of instructions fetched each cycle (Total)
system.cpu.fetch.rateDist::1                        0      0.00%     94.74% # Number of instructions fetched each cycle (Total)
system.cpu.fetch.rateDist::2                        0      0.00%     94.74% # Number of instructions fetched each cycle (Total)
system.cpu.fetch.rateDist::3                        0      0.00%     94.74% # Number of instructions fetched each cycle (Total)
system.cpu.fetch.rateDist::4                        0      0.00%     94.74% # Number of instructions fetched each cycle (Total)
system.cpu.fetch.rateDist::5                        1      1.32%     96.05% # Number of instructions fetched each cycle (Total)
system.cpu.fetch.rateDist::6                        0      0.00%     96.05% # Number of instructions fetched each cycle (Total)
system.cpu.fetch.rateDist::7                        0      0.00%     96.05% # Number of instructions fetched each cycle (Total)
system.cpu.fetch.rateDist::8                        3      3.95%    100.00% # Number of instructions fetched each cycle (Total)
system.cpu.fetch.rateDist::overflows                0      0.00%    100.00% # Number of instructions fetched each cycle (Total)
system.cpu.fetch.rateDist::min_value                0                       # Number of instructions fetched each cycle (Total)
system.cpu.fetch.rateDist::max_value                8                       # Number of instructions fetched each cycle (Total)
system.cpu.fetch.rateDist::total                   76                       # Number of instructions fetched each cycle (Total)
system.cpu.fetch.branchRate                         0                       # Number of branch fetches per cycle
[...]
system.switch_cpus_1.iq.FU_type_0::IprAccess            0      0.00%    100.00% # Type of FU issued
system.switch_cpus_1.iq.FU_type_0::InstPrefetch            0      0.00%    100.00% # Type of FU issued
system.switch_cpus_1.iq.FU_type_0::total    326945327                       # Type of FU issued
system.switch_cpus_1.iq.rate                 0.460408                       # Inst issue rate
system.switch_cpus_1.iq.fu_busy_cnt          58872494                       # FU busy when requested
system.switch_cpus_1.iq.fu_busy_rate         0.180068                       # FU busy rate (busy events/executed inst)
system.switch_cpus_1.iq.int_inst_queue_reads    763139757                       # Number of integer instruction queue reads
system.switch_cpus_1.iq.int_inst_queue_writes     23718643                       # Number of integer instruction queue writes
system.switch_cpus_1.iq.int_inst_queue_wakeup_accesses     22426651                       # Number of integer instruction queue wakeup accesses
system.switch_cpus_1.iq.fp_inst_queue_reads    659809073                       # Number of floating instruction queue reads
system.switch_cpus_1.iq.fp_inst_queue_writes    190287386                       # Number of floating instruction queue writes
system.switch_cpus_1.iq.fp_inst_queue_wakeup_accesses    182392982                       # Number of floating instruction queue wakeup accesses
system.switch_cpus_1.iq.int_alu_accesses     27560552                       # Number of integer alu accesses
system.switch_cpus_1.iq.fp_alu_accesses     358257269                       # Number of floating point alu accesses
system.switch_cpus_1.iew.lsq.thread0.forwLoads      8679809                       # Number of loads that had data forwarded from stores
system.switch_cpus_1.iew.lsq.thread0.invAddrLoads            0                       # Number of loads ignored due to an invalid address
system.switch_cpus_1.iew.lsq.thread0.squashedLoads      1751705                       # Number of loads squashed
system.switch_cpus_1.iew.lsq.thread0.ignoredResponses           24                       # Number of memory responses ignored because the instruction is squashed
system.switch_cpus_1.iew.lsq.thread0.memOrderViolation         1275                       # Number of memory ordering violations
system.switch_cpus_1.iew.lsq.thread0.squashedStores       655938                       # Number of stores squashed
system.switch_cpus_1.iew.lsq.thread0.invAddrSwpfs            0                       # Number of software prefetches ignored due to an invalid address
system.switch_cpus_1.iew.lsq.thread0.blockedLoads            0                       # Number of blocked loads due to partial load-store forwarding
system.switch_cpus_1.iew.lsq.thread0.rescheduledLoads            0                       # Number of loads that were rescheduled
system.switch_cpus_1.iew.lsq.thread0.cacheBlocked    129844581                       # Number of times an access to memory failed due to the cache being blocked
system.switch_cpus_1.iew.iewIdleCycles              0                       # Number of cycles IEW is idle
system.switch_cpus_1.iew.iewSquashCycles        62293                       # Number of cycles IEW is squashing
system.switch_cpus_1.iew.iewBlockCycles     488316925                       # Number of cycles IEW is blocking
system.switch_cpus_1.iew.iewUnblockCycles     41710617                       # Number of cycles IEW is unblocking
system.switch_cpus_1.iew.iewDispatchedInsts    207002423                       # Number of instructions dispatched to IQ
system.switch_cpus_1.iew.iewDispSquashedInsts            8                       # Number of squashed instructions skipped by dispatch
system.switch_cpus_1.iew.iewDispLoadInsts     38696294                       # Number of dispatched load instructions
system.switch_cpus_1.iew.iewDispStoreInsts     18517943                       # Number of dispatched store instructions
system.switch_cpus_1.iew.iewDispNonSpecInsts            0                       # Number of dispatched non-speculative instructions
system.switch_cpus_1.iew.iewIQFullEvents      2052046                       # Number of times the IQ has become full, causing a stall
system.switch_cpus_1.iew.iewLSQFullEvents     37834283                       # Number of times the LSQ has become full, causing a stall
system.switch_cpus_1.iew.memOrderViolationEvents         1275                       # Number of memory order violations
system.switch_cpus_1.iew.predictedTakenIncorrect         1289                       # Number of branches that were predicted taken incorrectly
system.switch_cpus_1.iew.predictedNotTakenIncorrect         8927                       # Number of branches that were predicted not taken incorrectly
system.switch_cpus_1.iew.branchMispredicts        10216                       # Number of branch mispredicts detected at execute
system.switch_cpus_1.iew.iewExecutedInsts    326938064                       # Number of executed instructions
system.switch_cpus_1.iew.iewExecLoadInsts    160215382                       # Number of load instructions executed
system.switch_cpus_1.iew.iewExecSquashedInsts         7249                       # Number of squashed instructions skipped in execute
system.switch_cpus_1.iew.exec_swp                   0                       # number of swp insts executed
system.switch_cpus_1.iew.exec_nop                   1                       # number of nop insts executed
system.switch_cpus_1.iew.exec_refs          178610822                       # number of memory reference insts executed
system.switch_cpus_1.iew.exec_branches        3143416                       # Number of branches executed
system.switch_cpus_1.iew.exec_stores         18395440                       # Number of stores executed
system.switch_cpus_1.iew.exec_rate           0.460398                       # Inst execution rate
system.switch_cpus_1.iew.wb_sent            205012234                       # cumulative count of insts sent to commit
system.switch_cpus_1.iew.wb_count           204819633                       # cumulative count of insts written-back
system.switch_cpus_1.iew.wb_producers       162713790                       # num instructions producing a value
system.switch_cpus_1.iew.wb_consumers       223460594                       # num instructions consuming a value
system.switch_cpus_1.iew.wb_rate             0.288429                       # insts written-back per cycle
system.switch_cpus_1.iew.wb_fanout           0.728154                       # average fanout of values written-back
system.switch_cpus_1.commit.commitSquashedInsts      7064033                       # The number of squashed insts skipped by commit
system.switch_cpus_1.commit.branchMispredicts        10216                       # The number of times a branch was mispredicted
system.switch_cpus_1.commit.committed_per_cycle::samples    709206406                       # Number of insts commited each cycle
system.switch_cpus_1.commit.committed_per_cycle::mean     0.282005                       # Number of insts commited each cycle
system.switch_cpus_1.commit.committed_per_cycle::stdev     1.357376                       # Number of insts commited each cycle
system.switch_cpus_1.commit.committed_per_cycle::underflows            0      0.00%      0.00% # Number of insts commited each cycle
system.switch_cpus_1.commit.committed_per_cycle::0    671169368     94.64%     94.64% # Number of insts commited each cycle
system.switch_cpus_1.commit.committed_per_cycle::1      8031614      1.13%     95.77% # Number of insts commited each cycle
system.switch_cpus_1.commit.committed_per_cycle::2      1800334      0.25%     96.02% # Number of insts commited each cycle
system.switch_cpus_1.commit.committed_per_cycle::3      2135190      0.30%     96.32% # Number of insts commited each cycle
system.switch_cpus_1.commit.committed_per_cycle::4      3057644      0.43%     96.76% # Number of insts commited each cycle
system.switch_cpus_1.commit.committed_per_cycle::5      3124084      0.44%     97.20% # Number of insts commited each cycle
system.switch_cpus_1.commit.committed_per_cycle::6      1844428      0.26%     97.46% # Number of insts commited each cycle
system.switch_cpus_1.commit.committed_per_cycle::7      1305365      0.18%     97.64% # Number of insts commited each cycle
system.switch_cpus_1.commit.committed_per_cycle::8     16738379      2.36%    100.00% # Number of insts commited each cycle
system.switch_cpus_1.commit.committed_per_cycle::overflows            0      0.00%    100.00% # Number of insts commited each cycle
system.switch_cpus_1.commit.committed_per_cycle::min_value            0                       # Number of insts commited each cycle
system.switch_cpus_1.commit.committed_per_cycle::max_value            8                       # Number of insts commited each cycle
system.switch_cpus_1.commit.committed_per_cycle::total    709206406                       # Number of insts commited each cycle
system.switch_cpus_1.commit.committedInsts    200000003                       # Number of instructions committed
system.switch_cpus_1.commit.committedOps    200000003                       # Number of ops (including micro ops) committed
system.switch_cpus_1.commit.swp_count               0                       # Number of s/w prefetches committed
system.switch_cpus_1.commit.refs             54806565                       # Number of memory references committed
system.switch_cpus_1.commit.loads            36944574                       # Number of loads committed
system.switch_cpus_1.commit.membars                 0                       # Number of memory barriers committed
system.switch_cpus_1.commit.branches          3002738                       # Number of branches committed
system.switch_cpus_1.commit.fp_insts        178679405                       # Number of committed floating point instructions.
system.switch_cpus_1.commit.int_insts        74337577                       # Number of committed integer instructions.
system.switch_cpus_1.commit.function_calls            0                       # Number of function calls committed.
system.switch_cpus_1.commit.op_class_0::No_OpClass            0      0.00%      0.00% # Class of committed instruction
system.switch_cpus_1.commit.op_class_0::IntAlu     20683879     10.34%     10.34% # Class of committed instruction
system.switch_cpus_1.commit.op_class_0::IntMult            0      0.00%     10.34% # Class of committed instruction
system.switch_cpus_1.commit.op_class_0::IntDiv            0      0.00%     10.34% # Class of committed instruction
system.switch_cpus_1.commit.op_class_0::FloatAdd     77818474     38.91%     49.25% # Class of committed instruction
system.switch_cpus_1.commit.op_class_0::FloatCmp            0      0.00%     49.25% # Class of committed instruction
system.switch_cpus_1.commit.op_class_0::FloatCvt            0      0.00%     49.25% # Class of committed instruction
system.switch_cpus_1.commit.op_class_0::FloatMult     44961786     22.48%     71.73% # Class of committed instruction
system.switch_cpus_1.commit.op_class_0::FloatMultAcc            0      0.00%     71.73% # Class of committed instruction
system.switch_cpus_1.commit.op_class_0::FloatDiv      1729299      0.86%     72.60% # Class of committed instruction
system.switch_cpus_1.commit.op_class_0::FloatMisc            0      0.00%     72.60% # Class of committed instruction
system.switch_cpus_1.commit.op_class_0::FloatSqrt            0      0.00%     72.60% # Class of committed instruction
system.switch_cpus_1.commit.op_class_0::SimdAdd            0      0.00%     72.60% # Class of committed instruction
system.switch_cpus_1.commit.op_class_0::SimdAddAcc            0      0.00%     72.60% # Class of committed instruction
system.switch_cpus_1.commit.op_class_0::SimdAlu            0      0.00%     72.60% # Class of committed instruction
system.switch_cpus_1.commit.op_class_0::SimdCmp            0      0.00%     72.60% # Class of committed instruction
system.switch_cpus_1.commit.op_class_0::SimdCvt            0      0.00%     72.60% # Class of committed instruction
system.switch_cpus_1.commit.op_class_0::SimdMisc            0      0.00%     72.60% # Class of committed instruction
system.switch_cpus_1.commit.op_class_0::SimdMult            0      0.00%     72.60% # Class of committed instruction
system.switch_cpus_1.commit.op_class_0::SimdMultAcc            0      0.00%     72.60% # Class of committed instruction
system.switch_cpus_1.commit.op_class_0::SimdShift            0      0.00%     72.60% # Class of committed instruction
system.switch_cpus_1.commit.op_class_0::SimdShiftAcc            0      0.00%     72.60% # Class of committed instruction
system.switch_cpus_1.commit.op_class_0::SimdSqrt            0      0.00%     72.60% # Class of committed instruction
system.switch_cpus_1.commit.op_class_0::SimdFloatAdd            0      0.00%     72.60% # Class of committed instruction
system.switch_cpus_1.commit.op_class_0::SimdFloatAlu            0      0.00%     72.60% # Class of committed instruction
system.switch_cpus_1.commit.op_class_0::SimdFloatCmp            0      0.00%     72.60% # Class of committed instruction
system.switch_cpus_1.commit.op_class_0::SimdFloatCvt            0      0.00%     72.60% # Class of committed instruction
system.switch_cpus_1.commit.op_class_0::SimdFloatDiv            0      0.00%     72.60% # Class of committed instruction
system.switch_cpus_1.commit.op_class_0::SimdFloatMisc            0      0.00%     72.60% # Class of committed instruction
system.switch_cpus_1.commit.op_class_0::SimdFloatMult            0      0.00%     72.60% # Class of committed instruction
system.switch_cpus_1.commit.op_class_0::SimdFloatMultAcc            0      0.00%     72.60% # Class of committed instruction
system.switch_cpus_1.commit.op_class_0::SimdFloatSqrt            0      0.00%     72.60% # Class of committed instruction
system.switch_cpus_1.commit.op_class_0::MemRead       636719      0.32%     72.92% # Class of committed instruction
system.switch_cpus_1.commit.op_class_0::MemWrite            0      0.00%     72.92% # Class of committed instruction
system.switch_cpus_1.commit.op_class_0::FloatMemRead     36307855     18.15%     91.07% # Class of committed instruction
system.switch_cpus_1.commit.op_class_0::FloatMemWrite     17861991      8.93%    100.00% # Class of committed instruction
system.switch_cpus_1.commit.op_class_0::IprAccess            0      0.00%    100.00% # Class of committed instruction
system.switch_cpus_1.commit.op_class_0::InstPrefetch            0      0.00%    100.00% # Class of committed instruction
system.switch_cpus_1.commit.op_class_0::total    200000003                       # Class of committed instruction
system.switch_cpus_1.commit.bw_lim_events     16738379                       # number cycles where commit BW limit reached
system.switch_cpus_1.rob.rob_reads          898864734                       # The number of ROB reads
system.switch_cpus_1.rob.rob_writes         415042749                       # The number of ROB writes
system.switch_cpus_1.committedInsts         200000003                       # Number of Instructions Simulated
system.switch_cpus_1.committedOps           200000003                       # Number of Ops (including micro ops) Simulated
system.switch_cpus_1.cpi                     3.550605                       # CPI: Cycles Per Instruction
system.switch_cpus_1.cpi_total               3.550605                       # CPI: Total CPI of All Threads
system.switch_cpus_1.ipc                     0.281642                       # IPC: Instructions Per Cycle
system.switch_cpus_1.ipc_total               0.281642                       # IPC: Total IPC of All Threads
system.switch_cpus_1.int_regfile_reads      199863660                       # number of integer regfile reads
system.switch_cpus_1.int_regfile_writes      19284369                       # number of integer regfile writes
system.switch_cpus_1.fp_regfile_reads       271527508                       # number of floating regfile reads
system.switch_cpus_1.fp_regfile_writes      164049562                       # number of floating regfile writes
system.tol3bus.snoop_filter.tot_requests     76288140                       # Total number of requests made to the snoop filter.
system.tol3bus.snoop_filter.hit_single_requests     38141899                       # Number of requests hitting in the snoop filter with a single holder of the requested data.
system.tol3bus.snoop_filter.hit_multi_requests            0                       # Number of requests hitting in the snoop filter with multiple (>1) holders of the requested data.
system.tol3bus.snoop_filter.tot_snoops            286                       # Total number of snoops made to the snoop filter.
system.tol3bus.snoop_filter.hit_single_snoops          286                       # Number of snoops hitting in the snoop filter with a single holder of the requested data.
system.tol3bus.snoop_filter.hit_multi_snoops            0                       # Number of snoops hitting in the snoop filter with multiple (>1) holders of the requested data.
system.tol3bus.pwrStateResidencyTicks::UNDEFINED 25047926551449                       # Cumulative time (in ticks) in various power states
system.tol3bus.trans_dist::ReadResp           9536654                       # Transaction distribution
system.tol3bus.trans_dist::WritebackDirty     54769782                       # Transaction distribution
system.tol3bus.trans_dist::CleanEvict        19052860                       # Transaction distribution
system.tol3bus.trans_dist::ReadExReq         28609587                       # Transaction distribution
system.tol3bus.trans_dist::ReadExResp        28609585                       # Transaction distribution
system.tol3bus.trans_dist::ReadSharedReq      9536654                       # Transaction distribution
system.tol3bus.pkt_count_system.cpu.l2.mem_side::system.l3.cpu_side    114434379                       # Packet count per connected master and slave (bytes)
system.tol3bus.pkt_size_system.cpu.l2.mem_side::system.l3.cpu_side   4272153600                       # Cumulative packet size per connected master and slave (bytes)
system.tol3bus.snoops                        35680743                       # Total snoops (count)
system.tol3bus.snoopTraffic                1674471744                       # Total snoop traffic (bytes)
system.tol3bus.snoop_fanout::samples         73826984                       # Request fanout histogram
system.tol3bus.snoop_fanout::mean            0.000004                       # Request fanout histogram
system.tol3bus.snoop_fanout::stdev           0.001968                       # Request fanout histogram
system.tol3bus.snoop_fanout::underflows             0      0.00%      0.00% # Request fanout histogram
system.tol3bus.snoop_fanout::0               73826698    100.00%    100.00% # Request fanout histogram
system.tol3bus.snoop_fanout::1                    286      0.00%    100.00% # Request fanout histogram
system.tol3bus.snoop_fanout::overflows              0      0.00%    100.00% # Request fanout histogram
system.tol3bus.snoop_fanout::min_value              0                       # Request fanout histogram
system.tol3bus.snoop_fanout::max_value              1                       # Request fanout histogram
system.tol3bus.snoop_fanout::total           73826984                       # Request fanout histogram
system.tol3bus.reqLayer0.occupancy        34929802233                       # Layer occupancy (ticks)
system.tol3bus.reqLayer0.utilization              0.7                       # Layer utilization (%)
system.tol3bus.respLayer0.occupancy       25405395174                       # Layer occupancy (ticks)
system.tol3bus.respLayer0.utilization             0.5                       # Layer utilization (%)

---------- End Simulation Statistics   ----------
