
---------- Begin Simulation Statistics ----------
sim_seconds                                  1.371806                       # Number of seconds simulated
sim_ticks                                1371805835652                       # Number of ticks simulated
final_tick                               118606502267838                       # Number of ticks from beginning of simulation (restored from checkpoints and never reset)
sim_freq                                 1000000000000                       # Frequency of simulated ticks
host_inst_rate                                 658423                       # Simulator instruction rate (inst/s)
host_op_rate                                   658423                       # Simulator op (including micro ops) rate (op/s)
host_tick_rate                              752690281                       # Simulator tick rate (ticks/s)
host_mem_usage                                2589448                       # Number of bytes of host memory used
host_seconds                                  1822.54                       # Real time elapsed on the host
sim_insts                                  1200000007                       # Number of instructions simulated
sim_ops                                    1200000007                       # Number of ops (including micro ops) simulated
system.voltage_domain.voltage                       1                       # Voltage in Volts
system.clk_domain.clock                          1000                       # Clock period in ticks
system.mem_ctrls0.pwrStateResidencyTicks::UNDEFINED 118606502267838                       # Cumulative time (in ticks) in various power states
system.mem_ctrls0.bytes_read::cpu.inst             64                       # Number of bytes read from this memory
system.mem_ctrls0.bytes_read::switch_cpus.inst        21888                       # Number of bytes read from this memory
system.mem_ctrls0.bytes_read::switch_cpus.data    116292416                       # Number of bytes read from this memory
system.mem_ctrls0.bytes_read::switch_cpus_1.inst          384                       # Number of bytes read from this memory
system.mem_ctrls0.bytes_read::switch_cpus_1.data     22128064                       # Number of bytes read from this memory
system.mem_ctrls0.bytes_read::total         138442816                       # Number of bytes read from this memory
system.mem_ctrls0.bytes_inst_read::cpu.inst           64                       # Number of instructions bytes read from this memory
system.mem_ctrls0.bytes_inst_read::switch_cpus.inst        21888                       # Number of instructions bytes read from this memory
system.mem_ctrls0.bytes_inst_read::switch_cpus_1.inst          384                       # Number of instructions bytes read from this memory
system.mem_ctrls0.bytes_inst_read::total        22336                       # Number of instructions bytes read from this memory
system.mem_ctrls0.bytes_written::writebacks     56018176                       # Number of bytes written to this memory
system.mem_ctrls0.bytes_written::total       56018176                       # Number of bytes written to this memory
system.mem_ctrls0.num_reads::cpu.inst               1                       # Number of read requests responded to by this memory
system.mem_ctrls0.num_reads::switch_cpus.inst          342                       # Number of read requests responded to by this memory
system.mem_ctrls0.num_reads::switch_cpus.data      1817069                       # Number of read requests responded to by this memory
system.mem_ctrls0.num_reads::switch_cpus_1.inst            6                       # Number of read requests responded to by this memory
system.mem_ctrls0.num_reads::switch_cpus_1.data       345751                       # Number of read requests responded to by this memory
system.mem_ctrls0.num_reads::total            2163169                       # Number of read requests responded to by this memory
system.mem_ctrls0.num_writes::writebacks       875284                       # Number of write requests responded to by this memory
system.mem_ctrls0.num_writes::total            875284                       # Number of write requests responded to by this memory
system.mem_ctrls0.bw_read::cpu.inst                47                       # Total read bandwidth from this memory (bytes/s)
system.mem_ctrls0.bw_read::switch_cpus.inst        15956                       # Total read bandwidth from this memory (bytes/s)
system.mem_ctrls0.bw_read::switch_cpus.data     84773233                       # Total read bandwidth from this memory (bytes/s)
system.mem_ctrls0.bw_read::switch_cpus_1.inst          280                       # Total read bandwidth from this memory (bytes/s)
system.mem_ctrls0.bw_read::switch_cpus_1.data     16130609                       # Total read bandwidth from this memory (bytes/s)
system.mem_ctrls0.bw_read::total            100920125                       # Total read bandwidth from this memory (bytes/s)
system.mem_ctrls0.bw_inst_read::cpu.inst           47                       # Instruction read bandwidth from this memory (bytes/s)
system.mem_ctrls0.bw_inst_read::switch_cpus.inst        15956                       # Instruction read bandwidth from this memory (bytes/s)
system.mem_ctrls0.bw_inst_read::switch_cpus_1.inst          280                       # Instruction read bandwidth from this memory (bytes/s)
system.mem_ctrls0.bw_inst_read::total           16282                       # Instruction read bandwidth from this memory (bytes/s)
system.mem_ctrls0.bw_write::writebacks       40835353                       # Write bandwidth from this memory (bytes/s)
system.mem_ctrls0.bw_write::total            40835353                       # Write bandwidth from this memory (bytes/s)
system.mem_ctrls0.bw_total::writebacks       40835353                       # Total bandwidth to/from this memory (bytes/s)
system.mem_ctrls0.bw_total::cpu.inst               47                       # Total bandwidth to/from this memory (bytes/s)
system.mem_ctrls0.bw_total::switch_cpus.inst        15956                       # Total bandwidth to/from this memory (bytes/s)
system.mem_ctrls0.bw_total::switch_cpus.data     84773233                       # Total bandwidth to/from this memory (bytes/s)
system.mem_ctrls0.bw_total::switch_cpus_1.inst          280                       # Total bandwidth to/from this memory (bytes/s)
system.mem_ctrls0.bw_total::switch_cpus_1.data     16130609                       # Total bandwidth to/from this memory (bytes/s)
system.mem_ctrls0.bw_total::total           141755478                       # Total bandwidth to/from this memory (bytes/s)
system.mem_ctrls0.readReqs                    2163169                       # Number of read requests accepted
system.mem_ctrls0.writeReqs                    875284                       # Number of write requests accepted
system.mem_ctrls0.readBursts                  2163169                       # Number of DRAM read bursts, including those serviced by the write queue
system.mem_ctrls0.writeBursts                  875284                       # Number of DRAM write bursts, including those merged in the write queue
system.mem_ctrls0.bytesReadDRAM             138440384                       # Total number of bytes read from DRAM
system.mem_ctrls0.bytesReadWrQ                   2432                       # Total number of bytes read from write queue
system.mem_ctrls0.bytesWritten               56016768                       # Total number of bytes written to DRAM
system.mem_ctrls0.bytesReadSys              138442816                       # Total read bytes from the system interface side
system.mem_ctrls0.bytesWrittenSys            56018176                       # Total written bytes from the system interface side
system.mem_ctrls0.servicedByWrQ                    38                       # Number of DRAM read bursts serviced by the write queue
system.mem_ctrls0.mergedWrBursts                    0                       # Number of DRAM write bursts merged with an existing one
system.mem_ctrls0.neitherReadNorWriteReqs            0                       # Number of requests that are neither read nor write
system.mem_ctrls0.perBankRdBursts::0           134699                       # Per bank write bursts
system.mem_ctrls0.perBankRdBursts::1           135120                       # Per bank write bursts
system.mem_ctrls0.perBankRdBursts::2           135730                       # Per bank write bursts
system.mem_ctrls0.perBankRdBursts::3           135180                       # Per bank write bursts
system.mem_ctrls0.perBankRdBursts::4           135857                       # Per bank write bursts
system.mem_ctrls0.perBankRdBursts::5           135270                       # Per bank write bursts
system.mem_ctrls0.perBankRdBursts::6           135845                       # Per bank write bursts
system.mem_ctrls0.perBankRdBursts::7           134789                       # Per bank write bursts
system.mem_ctrls0.perBankRdBursts::8           135373                       # Per bank write bursts
system.mem_ctrls0.perBankRdBursts::9           135423                       # Per bank write bursts
system.mem_ctrls0.perBankRdBursts::10          135002                       # Per bank write bursts
system.mem_ctrls0.perBankRdBursts::11          135183                       # Per bank write bursts
system.mem_ctrls0.perBankRdBursts::12          135239                       # Per bank write bursts
system.mem_ctrls0.perBankRdBursts::13          134392                       # Per bank write bursts
system.mem_ctrls0.perBankRdBursts::14          134865                       # Per bank write bursts
system.mem_ctrls0.perBankRdBursts::15          135164                       # Per bank write bursts
system.mem_ctrls0.perBankWrBursts::0            54687                       # Per bank write bursts
system.mem_ctrls0.perBankWrBursts::1            54432                       # Per bank write bursts
system.mem_ctrls0.perBankWrBursts::2            54746                       # Per bank write bursts
system.mem_ctrls0.perBankWrBursts::3            54712                       # Per bank write bursts
system.mem_ctrls0.perBankWrBursts::4            54555                       # Per bank write bursts
system.mem_ctrls0.perBankWrBursts::5            54622                       # Per bank write bursts
system.mem_ctrls0.perBankWrBursts::6            55356                       # Per bank write bursts
system.mem_ctrls0.perBankWrBursts::7            54689                       # Per bank write bursts
system.mem_ctrls0.perBankWrBursts::8            54925                       # Per bank write bursts
system.mem_ctrls0.perBankWrBursts::9            54875                       # Per bank write bursts
system.mem_ctrls0.perBankWrBursts::10           54737                       # Per bank write bursts
system.mem_ctrls0.perBankWrBursts::11           54596                       # Per bank write bursts
system.mem_ctrls0.perBankWrBursts::12           54816                       # Per bank write bursts
system.mem_ctrls0.perBankWrBursts::13           54581                       # Per bank write bursts
system.mem_ctrls0.perBankWrBursts::14           54392                       # Per bank write bursts
system.mem_ctrls0.perBankWrBursts::15           54541                       # Per bank write bursts
system.mem_ctrls0.numRdRetry                        0                       # Number of times read queue was full causing retry
system.mem_ctrls0.numWrRetry                        0                       # Number of times write queue was full causing retry
system.mem_ctrls0.totGap                 1371805422399                       # Total gap between requests
system.mem_ctrls0.readPktSize::0                    0                       # Read request sizes (log2)
system.mem_ctrls0.readPktSize::1                    0                       # Read request sizes (log2)
system.mem_ctrls0.readPktSize::2                    0                       # Read request sizes (log2)
system.mem_ctrls0.readPktSize::3                    0                       # Read request sizes (log2)
system.mem_ctrls0.readPktSize::4                    0                       # Read request sizes (log2)
system.mem_ctrls0.readPktSize::5                    0                       # Read request sizes (log2)
system.mem_ctrls0.readPktSize::6              2163169                       # Read request sizes (log2)
system.mem_ctrls0.writePktSize::0                   0                       # Write request sizes (log2)
system.mem_ctrls0.writePktSize::1                   0                       # Write request sizes (log2)
system.mem_ctrls0.writePktSize::2                   0                       # Write request sizes (log2)
system.mem_ctrls0.writePktSize::3                   0                       # Write request sizes (log2)
system.mem_ctrls0.writePktSize::4                   0                       # Write request sizes (log2)
system.mem_ctrls0.writePktSize::5                   0                       # Write request sizes (log2)
system.mem_ctrls0.writePktSize::6              875284                       # Write request sizes (log2)
system.mem_ctrls0.rdQLenPdf::0                2070942                       # What read queue length does an incoming req see
system.mem_ctrls0.rdQLenPdf::1                  76633                       # What read queue length does an incoming req see
system.mem_ctrls0.rdQLenPdf::2                  13838                       # What read queue length does an incoming req see
system.mem_ctrls0.rdQLenPdf::3                   1718                       # What read queue length does an incoming req see
system.mem_ctrls0.rdQLenPdf::4                      0                       # What read queue length does an incoming req see
system.mem_ctrls0.rdQLenPdf::5                      0                       # What read queue length does an incoming req see
system.mem_ctrls0.rdQLenPdf::6                      0                       # What read queue length does an incoming req see
system.mem_ctrls0.rdQLenPdf::7                      0                       # What read queue length does an incoming req see
system.mem_ctrls0.rdQLenPdf::8                      0                       # What read queue length does an incoming req see
system.mem_ctrls0.rdQLenPdf::9                      0                       # What read queue length does an incoming req see
system.mem_ctrls0.rdQLenPdf::10                     0                       # What read queue length does an incoming req see
system.mem_ctrls0.rdQLenPdf::11                     0                       # What read queue length does an incoming req see
system.mem_ctrls0.rdQLenPdf::12                     0                       # What read queue length does an incoming req see
system.mem_ctrls0.rdQLenPdf::13                     0                       # What read queue length does an incoming req see
system.mem_ctrls0.rdQLenPdf::14                     0                       # What read queue length does an incoming req see
system.mem_ctrls0.rdQLenPdf::15                     0                       # What read queue length does an incoming req see
system.mem_ctrls0.rdQLenPdf::16                     0                       # What read queue length does an incoming req see
system.mem_ctrls0.rdQLenPdf::17                     0                       # What read queue length does an incoming req see
system.mem_ctrls0.rdQLenPdf::18                     0                       # What read queue length does an incoming req see
system.mem_ctrls0.rdQLenPdf::19                     0                       # What read queue length does an incoming req see
system.mem_ctrls0.rdQLenPdf::20                     0                       # What read queue length does an incoming req see
system.mem_ctrls0.rdQLenPdf::21                     0                       # What read queue length does an incoming req see
system.mem_ctrls0.rdQLenPdf::22                     0                       # What read queue length does an incoming req see
system.mem_ctrls0.rdQLenPdf::23                     0                       # What read queue length does an incoming req see
system.mem_ctrls0.rdQLenPdf::24                     0                       # What read queue length does an incoming req see
system.mem_ctrls0.rdQLenPdf::25                     0                       # What read queue length does an incoming req see
system.mem_ctrls0.rdQLenPdf::26                     0                       # What read queue length does an incoming req see
system.mem_ctrls0.rdQLenPdf::27                     0                       # What read queue length does an incoming req see
system.mem_ctrls0.rdQLenPdf::28                     0                       # What read queue length does an incoming req see
system.mem_ctrls0.rdQLenPdf::29                     0                       # What read queue length does an incoming req see
system.mem_ctrls0.rdQLenPdf::30                     0                       # What read queue length does an incoming req see
system.mem_ctrls0.rdQLenPdf::31                     0                       # What read queue length does an incoming req see
system.mem_ctrls0.wrQLenPdf::0                      2                       # What write queue length does an incoming req see
system.mem_ctrls0.wrQLenPdf::1                      2                       # What write queue length does an incoming req see
system.mem_ctrls0.wrQLenPdf::2                      2                       # What write queue length does an incoming req see
system.mem_ctrls0.wrQLenPdf::3                      2                       # What write queue length does an incoming req see
system.mem_ctrls0.wrQLenPdf::4                      2                       # What write queue length does an incoming req see
system.mem_ctrls0.wrQLenPdf::5                      2                       # What write queue length does an incoming req see
system.mem_ctrls0.wrQLenPdf::6                      2                       # What write queue length does an incoming req see
system.mem_ctrls0.wrQLenPdf::7                      2                       # What write queue length does an incoming req see
system.mem_ctrls0.wrQLenPdf::8                      2                       # What write queue length does an incoming req see
system.mem_ctrls0.wrQLenPdf::9                      2                       # What write queue length does an incoming req see
system.mem_ctrls0.wrQLenPdf::10                     2                       # What write queue length does an incoming req see
system.mem_ctrls0.wrQLenPdf::11                     2                       # What write queue length does an incoming req see
system.mem_ctrls0.wrQLenPdf::12                     2                       # What write queue length does an incoming req see
system.mem_ctrls0.wrQLenPdf::13                     2                       # What write queue length does an incoming req see
system.mem_ctrls0.wrQLenPdf::14                     2                       # What write queue length does an incoming req see
system.mem_ctrls0.wrQLenPdf::15                 36914                       # What write queue length does an incoming req see
system.mem_ctrls0.wrQLenPdf::16                 38036                       # What write queue length does an incoming req see
system.mem_ctrls0.wrQLenPdf::17                 48959                       # What write queue length does an incoming req see
system.mem_ctrls0.wrQLenPdf::18                 49896                       # What write queue length does an incoming req see
system.mem_ctrls0.wrQLenPdf::19                 49985                       # What write queue length does an incoming req see
system.mem_ctrls0.wrQLenPdf::20                 50007                       # What write queue length does an incoming req see
system.mem_ctrls0.wrQLenPdf::21                 49990                       # What write queue length does an incoming req see
system.mem_ctrls0.wrQLenPdf::22                 50018                       # What write queue length does an incoming req see
system.mem_ctrls0.wrQLenPdf::23                 50059                       # What write queue length does an incoming req see
system.mem_ctrls0.wrQLenPdf::24                 50079                       # What write queue length does an incoming req see
system.mem_ctrls0.wrQLenPdf::25                 50237                       # What write queue length does an incoming req see
system.mem_ctrls0.wrQLenPdf::26                 50664                       # What write queue length does an incoming req see
system.mem_ctrls0.wrQLenPdf::27                 50079                       # What write queue length does an incoming req see
system.mem_ctrls0.wrQLenPdf::28                 50096                       # What write queue length does an incoming req see
system.mem_ctrls0.wrQLenPdf::29                 50112                       # What write queue length does an incoming req see
system.mem_ctrls0.wrQLenPdf::30                 50235                       # What write queue length does an incoming req see
system.mem_ctrls0.wrQLenPdf::31                 49954                       # What write queue length does an incoming req see
system.mem_ctrls0.wrQLenPdf::32                 49917                       # What write queue length does an incoming req see
system.mem_ctrls0.wrQLenPdf::33                    15                       # What write queue length does an incoming req see
system.mem_ctrls0.wrQLenPdf::34                     2                       # What write queue length does an incoming req see
system.mem_ctrls0.wrQLenPdf::35                     0                       # What write queue length does an incoming req see
system.mem_ctrls0.wrQLenPdf::36                     0                       # What write queue length does an incoming req see
system.mem_ctrls0.wrQLenPdf::37                     0                       # What write queue length does an incoming req see
system.mem_ctrls0.wrQLenPdf::38                     0                       # What write queue length does an incoming req see
system.mem_ctrls0.wrQLenPdf::39                     0                       # What write queue length does an incoming req see
system.mem_ctrls0.wrQLenPdf::40                     0                       # What write queue length does an incoming req see
system.mem_ctrls0.wrQLenPdf::41                     0                       # What write queue length does an incoming req see
system.mem_ctrls0.wrQLenPdf::42                     0                       # What write queue length does an incoming req see
system.mem_ctrls0.wrQLenPdf::43                     0                       # What write queue length does an incoming req see
system.mem_ctrls0.wrQLenPdf::44                     0                       # What write queue length does an incoming req see
system.mem_ctrls0.wrQLenPdf::45                     0                       # What write queue length does an incoming req see
system.mem_ctrls0.wrQLenPdf::46                     0                       # What write queue length does an incoming req see
system.mem_ctrls0.wrQLenPdf::47                     0                       # What write queue length does an incoming req see
system.mem_ctrls0.wrQLenPdf::48                     0                       # What write queue length does an incoming req see
system.mem_ctrls0.wrQLenPdf::49                     0                       # What write queue length does an incoming req see
system.mem_ctrls0.wrQLenPdf::50                     0                       # What write queue length does an incoming req see
system.mem_ctrls0.wrQLenPdf::51                     0                       # What write queue length does an incoming req see
system.mem_ctrls0.wrQLenPdf::52                     0                       # What write queue length does an incoming req see
system.mem_ctrls0.wrQLenPdf::53                     0                       # What write queue length does an incoming req see
system.mem_ctrls0.wrQLenPdf::54                     0                       # What write queue length does an incoming req see
system.mem_ctrls0.wrQLenPdf::55                     0                       # What write queue length does an incoming req see
system.mem_ctrls0.wrQLenPdf::56                     0                       # What write queue length does an incoming req see
system.mem_ctrls0.wrQLenPdf::57                     0                       # What write queue length does an incoming req see
system.mem_ctrls0.wrQLenPdf::58                     0                       # What write queue length does an incoming req see
system.mem_ctrls0.wrQLenPdf::59                     0                       # What write queue length does an incoming req see
system.mem_ctrls0.wrQLenPdf::60                     0                       # What write queue length does an incoming req see
system.mem_ctrls0.wrQLenPdf::61                     0                       # What write queue length does an incoming req see
system.mem_ctrls0.wrQLenPdf::62                     0                       # What write queue length does an incoming req see
system.mem_ctrls0.wrQLenPdf::63                     0                       # What write queue length does an incoming req see
system.mem_ctrls0.bytesPerActivate::samples      1951963                       # Bytes accessed per row activation
system.mem_ctrls0.bytesPerActivate::mean    99.621101                       # Bytes accessed per row activation
system.mem_ctrls0.bytesPerActivate::gmean    81.688062                       # Bytes accessed per row activation
system.mem_ctrls0.bytesPerActivate::stdev    92.023302                       # Bytes accessed per row activation
system.mem_ctrls0.bytesPerActivate::0-127      1535865     78.68%     78.68% # Bytes accessed per row activation
system.mem_ctrls0.bytesPerActivate::128-255       264972     13.57%     92.26% # Bytes accessed per row activation
system.mem_ctrls0.bytesPerActivate::256-383        68771      3.52%     95.78% # Bytes accessed per row activation
system.mem_ctrls0.bytesPerActivate::384-511        37387      1.92%     97.70% # Bytes accessed per row activation
system.mem_ctrls0.bytesPerActivate::512-639        44428      2.28%     99.97% # Bytes accessed per row activation
system.mem_ctrls0.bytesPerActivate::640-767          370      0.02%     99.99% # Bytes accessed per row activation
system.mem_ctrls0.bytesPerActivate::768-895           94      0.00%    100.00% # Bytes accessed per row activation
system.mem_ctrls0.bytesPerActivate::896-1023           50      0.00%    100.00% # Bytes accessed per row activation
system.mem_ctrls0.bytesPerActivate::1024-1151           26      0.00%    100.00% # Bytes accessed per row activation
system.mem_ctrls0.bytesPerActivate::total      1951963                       # Bytes accessed per row activation
system.mem_ctrls0.rdPerTurnAround::samples        49899                       # Reads before turning the bus around for writes
system.mem_ctrls0.rdPerTurnAround::mean     43.349907                       # Reads before turning the bus around for writes
system.mem_ctrls0.rdPerTurnAround::gmean    41.185841                       # Reads before turning the bus around for writes
system.mem_ctrls0.rdPerTurnAround::stdev   141.334854                       # Reads before turning the bus around for writes
system.mem_ctrls0.rdPerTurnAround::0-1023        49898    100.00%    100.00% # Reads before turning the bus around for writes
system.mem_ctrls0.rdPerTurnAround::30720-31743            1      0.00%    100.00% # Reads before turning the bus around for writes
system.mem_ctrls0.rdPerTurnAround::total        49899                       # Reads before turning the bus around for writes
system.mem_ctrls0.wrPerTurnAround::samples        49899                       # Writes before turning the bus around for reads
system.mem_ctrls0.wrPerTurnAround::mean     17.540672                       # Writes before turning the bus around for reads
system.mem_ctrls0.wrPerTurnAround::gmean    17.517068                       # Writes before turning the bus around for reads
system.mem_ctrls0.wrPerTurnAround::stdev     0.894716                       # Writes before turning the bus around for reads
system.mem_ctrls0.wrPerTurnAround::16           11835     23.72%     23.72% # Writes before turning the bus around for reads
system.mem_ctrls0.wrPerTurnAround::17            1083      2.17%     25.89% # Writes before turning the bus around for reads
system.mem_ctrls0.wrPerTurnAround::18           35245     70.63%     96.52% # Writes before turning the bus around for reads
system.mem_ctrls0.wrPerTurnAround::19            1649      3.30%     99.83% # Writes before turning the bus around for reads
system.mem_ctrls0.wrPerTurnAround::20              78      0.16%     99.98% # Writes before turning the bus around for reads
system.mem_ctrls0.wrPerTurnAround::21               8      0.02%    100.00% # Writes before turning the bus around for reads
system.mem_ctrls0.wrPerTurnAround::22               1      0.00%    100.00% # Writes before turning the bus around for reads
system.mem_ctrls0.wrPerTurnAround::total        49899                       # Writes before turning the bus around for reads
system.mem_ctrls0.totQLat                 58735477123                       # Total ticks spent queuing
system.mem_ctrls0.totMemAccLat            99294183373                       # Total ticks spent from burst creation until serviced by the DRAM
system.mem_ctrls0.totBusLat               10815655000                       # Total ticks spent in databus transfers
system.mem_ctrls0.avgQLat                    27152.99                       # Average queueing delay per DRAM burst
system.mem_ctrls0.avgBusLat                   5000.00                       # Average bus latency per DRAM burst
system.mem_ctrls0.avgMemAccLat               45902.99                       # Average memory access latency per DRAM burst
system.mem_ctrls0.avgRdBW                      100.92                       # Average DRAM read bandwidth in MiByte/s
system.mem_ctrls0.avgWrBW                       40.83                       # Average achieved write bandwidth in MiByte/s
system.mem_ctrls0.avgRdBWSys                   100.92                       # Average system read bandwidth in MiByte/s
system.mem_ctrls0.avgWrBWSys                    40.84                       # Average system write bandwidth in MiByte/s
system.mem_ctrls0.peakBW                     12800.00                       # Theoretical peak bandwidth in MiByte/s
system.mem_ctrls0.busUtil                        1.11                       # Data bus utilization in percentage
system.mem_ctrls0.busUtilRead                    0.79                       # Data bus utilization in percentage for reads
system.mem_ctrls0.busUtilWrite                   0.32                       # Data bus utilization in percentage for writes
system.mem_ctrls0.avgRdQLen                      1.02                       # Average read queue length when enqueuing
system.mem_ctrls0.avgWrQLen                     24.29                       # Average write queue length when enqueuing
system.mem_ctrls0.readRowHits                  872241                       # Number of row buffer hits during reads
system.mem_ctrls0.writeRowHits                 214182                       # Number of row buffer hits during writes
system.mem_ctrls0.readRowHitRate                40.32                       # Row buffer hit rate for reads
system.mem_ctrls0.writeRowHitRate               24.47                       # Row buffer hit rate for writes
system.mem_ctrls0.avgGap                    451481.53                       # Average gap between requests
system.mem_ctrls0.pageHitRate                   35.76                       # Row buffer hit rate, read and write combined
system.mem_ctrls0_0.actEnergy              6962649540                       # Energy for activate commands per rank (pJ)
system.mem_ctrls0_0.preEnergy              3700728405                       # Energy for precharge commands per rank (pJ)
system.mem_ctrls0_0.readEnergy             7728978600                       # Energy for read commands per rank (pJ)
system.mem_ctrls0_0.writeEnergy            2285310780                       # Energy for write commands per rank (pJ)
system.mem_ctrls0_0.refreshEnergy        107579824560.000031                       # Energy for refresh commands per rank (pJ)
system.mem_ctrls0_0.actBackEnergy         63212515500                       # Energy for active background per rank (pJ)
system.mem_ctrls0_0.preBackEnergy          3628605600                       # Energy for precharge background per rank (pJ)
system.mem_ctrls0_0.actPowerDownEnergy   385670730690                       # Energy for active power-down per rank (pJ)
system.mem_ctrls0_0.prePowerDownEnergy   100782125280                       # Energy for precharge power-down per rank (pJ)
system.mem_ctrls0_0.selfRefreshEnergy     35843515680                       # Energy for self refresh per rank (pJ)
system.mem_ctrls0_0.totalEnergy          717426322065                       # Total energy per rank (pJ)
system.mem_ctrls0_0.averagePower           522.979485                       # Core power per rank (mW)
system.mem_ctrls0_0.totalIdleTime        1223662771253                       # Total Idle time Per DRAM Rank
system.mem_ctrls0_0.memoryStateTime::IDLE   4786946868                       # Time in different power states
system.mem_ctrls0_0.memoryStateTime::REF  45598338000                       # Time in different power states
system.mem_ctrls0_0.memoryStateTime::SREF 115440072576                       # Time in different power states
system.mem_ctrls0_0.memoryStateTime::PRE_PDN 262460281688                       # Time in different power states
system.mem_ctrls0_0.memoryStateTime::ACT  97757270010                       # Time in different power states
system.mem_ctrls0_0.memoryStateTime::ACT_PDN 845762926510                       # Time in different power states
system.mem_ctrls0_1.actEnergy              6974416260                       # Energy for activate commands per rank (pJ)
system.mem_ctrls0_1.preEnergy              3706971180                       # Energy for precharge commands per rank (pJ)
system.mem_ctrls0_1.readEnergy             7715776740                       # Energy for read commands per rank (pJ)
system.mem_ctrls0_1.writeEnergy            2283556860                       # Energy for write commands per rank (pJ)
system.mem_ctrls0_1.refreshEnergy        107577366000.000031                       # Energy for refresh commands per rank (pJ)
system.mem_ctrls0_1.actBackEnergy         63108396450                       # Energy for active background per rank (pJ)
system.mem_ctrls0_1.preBackEnergy          3640567200                       # Energy for precharge background per rank (pJ)
system.mem_ctrls0_1.actPowerDownEnergy   384939159060                       # Energy for active power-down per rank (pJ)
system.mem_ctrls0_1.prePowerDownEnergy   100895077440                       # Energy for precharge power-down per rank (pJ)
system.mem_ctrls0_1.selfRefreshEnergy     36319021980                       # Energy for self refresh per rank (pJ)
system.mem_ctrls0_1.totalEnergy          717194943510                       # Total energy per rank (pJ)
system.mem_ctrls0_1.averagePower           522.810818                       # Core power per rank (mW)
system.mem_ctrls0_1.totalIdleTime        1223842027425                       # Total Idle time Per DRAM Rank
system.mem_ctrls0_1.memoryStateTime::IDLE   4822588965                       # Time in different power states
system.mem_ctrls0_1.memoryStateTime::REF  45598918000                       # Time in different power states
system.mem_ctrls0_1.memoryStateTime::SREF 116940096052                       # Time in different power states
system.mem_ctrls0_1.memoryStateTime::PRE_PDN 262741633931                       # Time in different power states
system.mem_ctrls0_1.memoryStateTime::ACT  97541954578                       # Time in different power states
system.mem_ctrls0_1.memoryStateTime::ACT_PDN 844160644126                       # Time in different power states
system.mem_ctrls1.pwrStateResidencyTicks::UNDEFINED 118606502267838                       # Cumulative time (in ticks) in various power states
system.mem_ctrls1.bytes_read::cpu.inst             64                       # Number of bytes read from this memory
system.mem_ctrls1.bytes_read::switch_cpus.inst        22400                       # Number of bytes read from this memory
system.mem_ctrls1.bytes_read::switch_cpus.data    116256000                       # Number of bytes read from this memory
system.mem_ctrls1.bytes_read::switch_cpus_1.inst          320                       # Number of bytes read from this memory
system.mem_ctrls1.bytes_read::switch_cpus_1.data     22130432                       # Number of bytes read from this memory
system.mem_ctrls1.bytes_read::total         138409216                       # Number of bytes read from this memory
system.mem_ctrls1.bytes_inst_read::cpu.inst           64                       # Number of instructions bytes read from this memory
system.mem_ctrls1.bytes_inst_read::switch_cpus.inst        22400                       # Number of instructions bytes read from this memory
system.mem_ctrls1.bytes_inst_read::switch_cpus_1.inst          320                       # Number of instructions bytes read from this memory
system.mem_ctrls1.bytes_inst_read::total        22784                       # Number of instructions bytes read from this memory
system.mem_ctrls1.bytes_written::writebacks     56011520                       # Number of bytes written to this memory
system.mem_ctrls1.bytes_written::total       56011520                       # Number of bytes written to this memory
system.mem_ctrls1.num_reads::cpu.inst               1                       # Number of read requests responded to by this memory
system.mem_ctrls1.num_reads::switch_cpus.inst          350                       # Number of read requests responded to by this memory
system.mem_ctrls1.num_reads::switch_cpus.data      1816500                       # Number of read requests responded to by this memory
system.mem_ctrls1.num_reads::switch_cpus_1.inst            5                       # Number of read requests responded to by this memory
system.mem_ctrls1.num_reads::switch_cpus_1.data       345788                       # Number of read requests responded to by this memory
system.mem_ctrls1.num_reads::total            2162644                       # Number of read requests responded to by this memory
system.mem_ctrls1.num_writes::writebacks       875180                       # Number of write requests responded to by this memory
system.mem_ctrls1.num_writes::total            875180                       # Number of write requests responded to by this memory
system.mem_ctrls1.bw_read::cpu.inst                47                       # Total read bandwidth from this memory (bytes/s)
system.mem_ctrls1.bw_read::switch_cpus.inst        16329                       # Total read bandwidth from this memory (bytes/s)
system.mem_ctrls1.bw_read::switch_cpus.data     84746687                       # Total read bandwidth from this memory (bytes/s)
system.mem_ctrls1.bw_read::switch_cpus_1.inst          233                       # Total read bandwidth from this memory (bytes/s)
system.mem_ctrls1.bw_read::switch_cpus_1.data     16132336                       # Total read bandwidth from this memory (bytes/s)
system.mem_ctrls1.bw_read::total            100895631                       # Total read bandwidth from this memory (bytes/s)
system.mem_ctrls1.bw_inst_read::cpu.inst           47                       # Instruction read bandwidth from this memory (bytes/s)
system.mem_ctrls1.bw_inst_read::switch_cpus.inst        16329                       # Instruction read bandwidth from this memory (bytes/s)
system.mem_ctrls1.bw_inst_read::switch_cpus_1.inst          233                       # Instruction read bandwidth from this memory (bytes/s)
system.mem_ctrls1.bw_inst_read::total           16609                       # Instruction read bandwidth from this memory (bytes/s)
system.mem_ctrls1.bw_write::writebacks       40830501                       # Write bandwidth from this memory (bytes/s)
system.mem_ctrls1.bw_write::total            40830501                       # Write bandwidth from this memory (bytes/s)
system.mem_ctrls1.bw_total::writebacks       40830501                       # Total bandwidth to/from this memory (bytes/s)
system.mem_ctrls1.bw_total::cpu.inst               47                       # Total bandwidth to/from this memory (bytes/s)
system.mem_ctrls1.bw_total::switch_cpus.inst        16329                       # Total bandwidth to/from this memory (bytes/s)
system.mem_ctrls1.bw_total::switch_cpus.data     84746687                       # Total bandwidth to/from this memory (bytes/s)
system.mem_ctrls1.bw_total::switch_cpus_1.inst          233                       # Total bandwidth to/from this memory (bytes/s)
system.mem_ctrls1.bw_total::switch_cpus_1.data     16132336                       # Total bandwidth to/from this memory (bytes/s)
system.mem_ctrls1.bw_total::total           141726133                       # Total bandwidth to/from this memory (bytes/s)
system.mem_ctrls1.readReqs                    2162644                       # Number of read requests accepted
system.mem_ctrls1.writeReqs                    875180                       # Number of write requests accepted
system.mem_ctrls1.readBursts                  2162644                       # Number of DRAM read bursts, including those serviced by the write queue
system.mem_ctrls1.writeBursts                  875180                       # Number of DRAM write bursts, including those merged in the write queue
system.mem_ctrls1.bytesReadDRAM             138406912                       # Total number of bytes read from DRAM
system.mem_ctrls1.bytesReadWrQ                   2304                       # Total number of bytes read from write queue
system.mem_ctrls1.bytesWritten               56010496                       # Total number of bytes written to DRAM
system.mem_ctrls1.bytesReadSys              138409216                       # Total read bytes from the system interface side
system.mem_ctrls1.bytesWrittenSys            56011520                       # Total written bytes from the system interface side
system.mem_ctrls1.servicedByWrQ                    36                       # Number of DRAM read bursts serviced by the write queue
system.mem_ctrls1.mergedWrBursts                    0                       # Number of DRAM write bursts merged with an existing one
system.mem_ctrls1.neitherReadNorWriteReqs            0                       # Number of requests that are neither read nor write
system.mem_ctrls1.perBankRdBursts::0           134790                       # Per bank write bursts
system.mem_ctrls1.perBankRdBursts::1           135273                       # Per bank write bursts
system.mem_ctrls1.perBankRdBursts::2           135627                       # Per bank write bursts
system.mem_ctrls1.perBankRdBursts::3           135039                       # Per bank write bursts
system.mem_ctrls1.perBankRdBursts::4           135855                       # Per bank write bursts
system.mem_ctrls1.perBankRdBursts::5           135239                       # Per bank write bursts
system.mem_ctrls1.perBankRdBursts::6           135830                       # Per bank write bursts
system.mem_ctrls1.perBankRdBursts::7           134698                       # Per bank write bursts
system.mem_ctrls1.perBankRdBursts::8           135353                       # Per bank write bursts
system.mem_ctrls1.perBankRdBursts::9           135541                       # Per bank write bursts
system.mem_ctrls1.perBankRdBursts::10          134915                       # Per bank write bursts
system.mem_ctrls1.perBankRdBursts::11          135269                       # Per bank write bursts
system.mem_ctrls1.perBankRdBursts::12          134967                       # Per bank write bursts
system.mem_ctrls1.perBankRdBursts::13          134310                       # Per bank write bursts
system.mem_ctrls1.perBankRdBursts::14          134865                       # Per bank write bursts
system.mem_ctrls1.perBankRdBursts::15          135037                       # Per bank write bursts
system.mem_ctrls1.perBankWrBursts::0            54648                       # Per bank write bursts
system.mem_ctrls1.perBankWrBursts::1            54431                       # Per bank write bursts
system.mem_ctrls1.perBankWrBursts::2            54721                       # Per bank write bursts
system.mem_ctrls1.perBankWrBursts::3            54727                       # Per bank write bursts
system.mem_ctrls1.perBankWrBursts::4            54711                       # Per bank write bursts
system.mem_ctrls1.perBankWrBursts::5            54580                       # Per bank write bursts
system.mem_ctrls1.perBankWrBursts::6            55255                       # Per bank write bursts
system.mem_ctrls1.perBankWrBursts::7            54635                       # Per bank write bursts
system.mem_ctrls1.perBankWrBursts::8            54843                       # Per bank write bursts
system.mem_ctrls1.perBankWrBursts::9            55013                       # Per bank write bursts
system.mem_ctrls1.perBankWrBursts::10           54670                       # Per bank write bursts
system.mem_ctrls1.perBankWrBursts::11           54608                       # Per bank write bursts
system.mem_ctrls1.perBankWrBursts::12           54721                       # Per bank write bursts
system.mem_ctrls1.perBankWrBursts::13           54587                       # Per bank write bursts
system.mem_ctrls1.perBankWrBursts::14           54551                       # Per bank write bursts
system.mem_ctrls1.perBankWrBursts::15           54463                       # Per bank write bursts
system.mem_ctrls1.numRdRetry                        0                       # Number of times read queue was full causing retry
system.mem_ctrls1.numWrRetry                        0                       # Number of times write queue was full causing retry
system.mem_ctrls1.totGap                 1371805644510                       # Total gap between requests
system.mem_ctrls1.readPktSize::0                    0                       # Read request sizes (log2)
system.mem_ctrls1.readPktSize::1                    0                       # Read request sizes (log2)
system.mem_ctrls1.readPktSize::2                    0                       # Read request sizes (log2)
system.mem_ctrls1.readPktSize::3                    0                       # Read request sizes (log2)
system.mem_ctrls1.readPktSize::4                    0                       # Read request sizes (log2)
system.mem_ctrls1.readPktSize::5                    0                       # Read request sizes (log2)
system.mem_ctrls1.readPktSize::6              2162644                       # Read request sizes (log2)
system.mem_ctrls1.writePktSize::0                   0                       # Write request sizes (log2)
system.mem_ctrls1.writePktSize::1                   0                       # Write request sizes (log2)
system.mem_ctrls1.writePktSize::2                   0                       # Write request sizes (log2)
system.mem_ctrls1.writePktSize::3                   0                       # Write request sizes (log2)
system.mem_ctrls1.writePktSize::4                   0                       # Write request sizes (log2)
system.mem_ctrls1.writePktSize::5                   0                       # Write request sizes (log2)
system.mem_ctrls1.writePktSize::6              875180                       # Write request sizes (log2)
system.mem_ctrls1.rdQLenPdf::0                2070539                       # What read queue length does an incoming req see
system.mem_ctrls1.rdQLenPdf::1                  76664                       # What read queue length does an incoming req see
system.mem_ctrls1.rdQLenPdf::2                  13685                       # What read queue length does an incoming req see
system.mem_ctrls1.rdQLenPdf::3                   1720                       # What read queue length does an incoming req see
system.mem_ctrls1.rdQLenPdf::4                      0                       # What read queue length does an incoming req see
system.mem_ctrls1.rdQLenPdf::5                      0                       # What read queue length does an incoming req see
system.mem_ctrls1.rdQLenPdf::6                      0                       # What read queue length does an incoming req see
system.mem_ctrls1.rdQLenPdf::7                      0                       # What read queue length does an incoming req see
system.mem_ctrls1.rdQLenPdf::8                      0                       # What read queue length does an incoming req see
system.mem_ctrls1.rdQLenPdf::9                      0                       # What read queue length does an incoming req see
system.mem_ctrls1.rdQLenPdf::10                     0                       # What read queue length does an incoming req see
system.mem_ctrls1.rdQLenPdf::11                     0                       # What read queue length does an incoming req see
system.mem_ctrls1.rdQLenPdf::12                     0                       # What read queue length does an incoming req see
system.mem_ctrls1.rdQLenPdf::13                     0                       # What read queue length does an incoming req see
system.mem_ctrls1.rdQLenPdf::14                     0                       # What read queue length does an incoming req see
system.mem_ctrls1.rdQLenPdf::15                     0                       # What read queue length does an incoming req see
system.mem_ctrls1.rdQLenPdf::16                     0                       # What read queue length does an incoming req see
system.mem_ctrls1.rdQLenPdf::17                     0                       # What read queue length does an incoming req see
system.mem_ctrls1.rdQLenPdf::18                     0                       # What read queue length does an incoming req see
system.mem_ctrls1.rdQLenPdf::19                     0                       # What read queue length does an incoming req see
system.mem_ctrls1.rdQLenPdf::20                     0                       # What read queue length does an incoming req see
system.mem_ctrls1.rdQLenPdf::21                     0                       # What read queue length does an incoming req see
system.mem_ctrls1.rdQLenPdf::22                     0                       # What read queue length does an incoming req see
system.mem_ctrls1.rdQLenPdf::23                     0                       # What read queue length does an incoming req see
system.mem_ctrls1.rdQLenPdf::24                     0                       # What read queue length does an incoming req see
system.mem_ctrls1.rdQLenPdf::25                     0                       # What read queue length does an incoming req see
system.mem_ctrls1.rdQLenPdf::26                     0                       # What read queue length does an incoming req see
system.mem_ctrls1.rdQLenPdf::27                     0                       # What read queue length does an incoming req see
system.mem_ctrls1.rdQLenPdf::28                     0                       # What read queue length does an incoming req see
system.mem_ctrls1.rdQLenPdf::29                     0                       # What read queue length does an incoming req see
system.mem_ctrls1.rdQLenPdf::30                     0                       # What read queue length does an incoming req see
system.mem_ctrls1.rdQLenPdf::31                     0                       # What read queue length does an incoming req see
system.mem_ctrls1.wrQLenPdf::0                      2                       # What write queue length does an incoming req see
system.mem_ctrls1.wrQLenPdf::1                      2                       # What write queue length does an incoming req see
system.mem_ctrls1.wrQLenPdf::2                      2                       # What write queue length does an incoming req see
system.mem_ctrls1.wrQLenPdf::3                      2                       # What write queue length does an incoming req see
system.mem_ctrls1.wrQLenPdf::4                      2                       # What write queue length does an incoming req see
system.mem_ctrls1.wrQLenPdf::5                      2                       # What write queue length does an incoming req see
system.mem_ctrls1.wrQLenPdf::6                      2                       # What write queue length does an incoming req see
system.mem_ctrls1.wrQLenPdf::7                      2                       # What write queue length does an incoming req see
system.mem_ctrls1.wrQLenPdf::8                      2                       # What write queue length does an incoming req see
system.mem_ctrls1.wrQLenPdf::9                      2                       # What write queue length does an incoming req see
system.mem_ctrls1.wrQLenPdf::10                     2                       # What write queue length does an incoming req see
system.mem_ctrls1.wrQLenPdf::11                     2                       # What write queue length does an incoming req see
system.mem_ctrls1.wrQLenPdf::12                     2                       # What write queue length does an incoming req see
system.mem_ctrls1.wrQLenPdf::13                     2                       # What write queue length does an incoming req see
system.mem_ctrls1.wrQLenPdf::14                     2                       # What write queue length does an incoming req see
system.mem_ctrls1.wrQLenPdf::15                 36881                       # What write queue length does an incoming req see
system.mem_ctrls1.wrQLenPdf::16                 38018                       # What write queue length does an incoming req see
system.mem_ctrls1.wrQLenPdf::17                 48975                       # What write queue length does an incoming req see
system.mem_ctrls1.wrQLenPdf::18                 49922                       # What write queue length does an incoming req see
system.mem_ctrls1.wrQLenPdf::19                 49968                       # What write queue length does an incoming req see
system.mem_ctrls1.wrQLenPdf::20                 49991                       # What write queue length does an incoming req see
system.mem_ctrls1.wrQLenPdf::21                 49995                       # What write queue length does an incoming req see
system.mem_ctrls1.wrQLenPdf::22                 50003                       # What write queue length does an incoming req see
system.mem_ctrls1.wrQLenPdf::23                 50075                       # What write queue length does an incoming req see
system.mem_ctrls1.wrQLenPdf::24                 50073                       # What write queue length does an incoming req see
system.mem_ctrls1.wrQLenPdf::25                 50177                       # What write queue length does an incoming req see
system.mem_ctrls1.wrQLenPdf::26                 50607                       # What write queue length does an incoming req see
system.mem_ctrls1.wrQLenPdf::27                 50115                       # What write queue length does an incoming req see
system.mem_ctrls1.wrQLenPdf::28                 50092                       # What write queue length does an incoming req see
system.mem_ctrls1.wrQLenPdf::29                 50105                       # What write queue length does an incoming req see
system.mem_ctrls1.wrQLenPdf::30                 50229                       # What write queue length does an incoming req see
system.mem_ctrls1.wrQLenPdf::31                 49958                       # What write queue length does an incoming req see
system.mem_ctrls1.wrQLenPdf::32                 49940                       # What write queue length does an incoming req see
system.mem_ctrls1.wrQLenPdf::33                    25                       # What write queue length does an incoming req see
system.mem_ctrls1.wrQLenPdf::34                     1                       # What write queue length does an incoming req see
system.mem_ctrls1.wrQLenPdf::35                     0                       # What write queue length does an incoming req see
system.mem_ctrls1.wrQLenPdf::36                     0                       # What write queue length does an incoming req see
system.mem_ctrls1.wrQLenPdf::37                     0                       # What write queue length does an incoming req see
system.mem_ctrls1.wrQLenPdf::38                     0                       # What write queue length does an incoming req see
system.mem_ctrls1.wrQLenPdf::39                     0                       # What write queue length does an incoming req see
system.mem_ctrls1.wrQLenPdf::40                     0                       # What write queue length does an incoming req see
system.mem_ctrls1.wrQLenPdf::41                     0                       # What write queue length does an incoming req see
system.mem_ctrls1.wrQLenPdf::42                     0                       # What write queue length does an incoming req see
system.mem_ctrls1.wrQLenPdf::43                     0                       # What write queue length does an incoming req see
system.mem_ctrls1.wrQLenPdf::44                     0                       # What write queue length does an incoming req see
system.mem_ctrls1.wrQLenPdf::45                     0                       # What write queue length does an incoming req see
system.mem_ctrls1.wrQLenPdf::46                     0                       # What write queue length does an incoming req see
system.mem_ctrls1.wrQLenPdf::47                     0                       # What write queue length does an incoming req see
system.mem_ctrls1.wrQLenPdf::48                     0                       # What write queue length does an incoming req see
system.mem_ctrls1.wrQLenPdf::49                     0                       # What write queue length does an incoming req see
system.mem_ctrls1.wrQLenPdf::50                     0                       # What write queue length does an incoming req see
system.mem_ctrls1.wrQLenPdf::51                     0                       # What write queue length does an incoming req see
system.mem_ctrls1.wrQLenPdf::52                     0                       # What write queue length does an incoming req see
system.mem_ctrls1.wrQLenPdf::53                     0                       # What write queue length does an incoming req see
system.mem_ctrls1.wrQLenPdf::54                     0                       # What write queue length does an incoming req see
system.mem_ctrls1.wrQLenPdf::55                     0                       # What write queue length does an incoming req see
system.mem_ctrls1.wrQLenPdf::56                     0                       # What write queue length does an incoming req see
system.mem_ctrls1.wrQLenPdf::57                     0                       # What write queue length does an incoming req see
system.mem_ctrls1.wrQLenPdf::58                     0                       # What write queue length does an incoming req see
system.mem_ctrls1.wrQLenPdf::59                     0                       # What write queue length does an incoming req see
system.mem_ctrls1.wrQLenPdf::60                     0                       # What write queue length does an incoming req see
system.mem_ctrls1.wrQLenPdf::61                     0                       # What write queue length does an incoming req see
system.mem_ctrls1.wrQLenPdf::62                     0                       # What write queue length does an incoming req see
system.mem_ctrls1.wrQLenPdf::63                     0                       # What write queue length does an incoming req see
system.mem_ctrls1.bytesPerActivate::samples      1951823                       # Bytes accessed per row activation
system.mem_ctrls1.bytesPerActivate::mean    99.607852                       # Bytes accessed per row activation
system.mem_ctrls1.bytesPerActivate::gmean    81.684615                       # Bytes accessed per row activation
system.mem_ctrls1.bytesPerActivate::stdev    91.966599                       # Bytes accessed per row activation
system.mem_ctrls1.bytesPerActivate::0-127      1535936     78.69%     78.69% # Bytes accessed per row activation
system.mem_ctrls1.bytesPerActivate::128-255       264667     13.56%     92.25% # Bytes accessed per row activation
system.mem_ctrls1.bytesPerActivate::256-383        69135      3.54%     95.79% # Bytes accessed per row activation
system.mem_ctrls1.bytesPerActivate::384-511        37252      1.91%     97.70% # Bytes accessed per row activation
system.mem_ctrls1.bytesPerActivate::512-639        44300      2.27%     99.97% # Bytes accessed per row activation
system.mem_ctrls1.bytesPerActivate::640-767          356      0.02%     99.99% # Bytes accessed per row activation
system.mem_ctrls1.bytesPerActivate::768-895          103      0.01%    100.00% # Bytes accessed per row activation
system.mem_ctrls1.bytesPerActivate::896-1023           50      0.00%    100.00% # Bytes accessed per row activation
system.mem_ctrls1.bytesPerActivate::1024-1151           24      0.00%    100.00% # Bytes accessed per row activation
system.mem_ctrls1.bytesPerActivate::total      1951823                       # Bytes accessed per row activation
system.mem_ctrls1.rdPerTurnAround::samples        49897                       # Reads before turning the bus around for writes
system.mem_ctrls1.rdPerTurnAround::mean     43.341403                       # Reads before turning the bus around for writes
system.mem_ctrls1.rdPerTurnAround::gmean    41.175703                       # Reads before turning the bus around for writes
system.mem_ctrls1.rdPerTurnAround::stdev   141.068765                       # Reads before turning the bus around for writes
system.mem_ctrls1.rdPerTurnAround::0-1023        49896    100.00%    100.00% # Reads before turning the bus around for writes
system.mem_ctrls1.rdPerTurnAround::30720-31743            1      0.00%    100.00% # Reads before turning the bus around for writes
system.mem_ctrls1.rdPerTurnAround::total        49897                       # Reads before turning the bus around for writes
system.mem_ctrls1.wrPerTurnAround::samples        49897                       # Writes before turning the bus around for reads
system.mem_ctrls1.wrPerTurnAround::mean     17.539411                       # Writes before turning the bus around for reads
system.mem_ctrls1.wrPerTurnAround::gmean    17.515700                       # Writes before turning the bus around for reads
system.mem_ctrls1.wrPerTurnAround::stdev     0.897357                       # Writes before turning the bus around for reads
system.mem_ctrls1.wrPerTurnAround::16           11880     23.81%     23.81% # Writes before turning the bus around for reads
system.mem_ctrls1.wrPerTurnAround::17            1065      2.13%     25.94% # Writes before turning the bus around for reads
system.mem_ctrls1.wrPerTurnAround::18           35208     70.56%     96.50% # Writes before turning the bus around for reads
system.mem_ctrls1.wrPerTurnAround::19            1659      3.32%     99.83% # Writes before turning the bus around for reads
system.mem_ctrls1.wrPerTurnAround::20              81      0.16%     99.99% # Writes before turning the bus around for reads
system.mem_ctrls1.wrPerTurnAround::21               3      0.01%    100.00% # Writes before turning the bus around for reads
system.mem_ctrls1.wrPerTurnAround::31               1      0.00%    100.00% # Writes before turning the bus around for reads
system.mem_ctrls1.wrPerTurnAround::total        49897                       # Writes before turning the bus around for reads
system.mem_ctrls1.totQLat                 58736816909                       # Total ticks spent queuing
system.mem_ctrls1.totMemAccLat            99285716909                       # Total ticks spent from burst creation until serviced by the DRAM
system.mem_ctrls1.totBusLat               10813040000                       # Total ticks spent in databus transfers
system.mem_ctrls1.avgQLat                    27160.18                       # Average queueing delay per DRAM burst
system.mem_ctrls1.avgBusLat                   5000.00                       # Average bus latency per DRAM burst
system.mem_ctrls1.avgMemAccLat               45910.18                       # Average memory access latency per DRAM burst
system.mem_ctrls1.avgRdBW                      100.89                       # Average DRAM read bandwidth in MiByte/s
system.mem_ctrls1.avgWrBW                       40.83                       # Average achieved write bandwidth in MiByte/s
system.mem_ctrls1.avgRdBWSys                   100.90                       # Average system read bandwidth in MiByte/s
system.mem_ctrls1.avgWrBWSys                    40.83                       # Average system write bandwidth in MiByte/s
system.mem_ctrls1.peakBW                     12800.00                       # Theoretical peak bandwidth in MiByte/s
system.mem_ctrls1.busUtil                        1.11                       # Data bus utilization in percentage
system.mem_ctrls1.busUtilRead                    0.79                       # Data bus utilization in percentage for reads
system.mem_ctrls1.busUtilWrite                   0.32                       # Data bus utilization in percentage for writes
system.mem_ctrls1.avgRdQLen                      1.02                       # Average read queue length when enqueuing
system.mem_ctrls1.avgWrQLen                     24.29                       # Average write queue length when enqueuing
system.mem_ctrls1.readRowHits                  872340                       # Number of row buffer hits during reads
system.mem_ctrls1.writeRowHits                 213602                       # Number of row buffer hits during writes
system.mem_ctrls1.readRowHitRate                40.34                       # Row buffer hit rate for reads
system.mem_ctrls1.writeRowHitRate               24.41                       # Row buffer hit rate for writes
system.mem_ctrls1.avgGap                    451575.09                       # Average gap between requests
system.mem_ctrls1.pageHitRate                   35.75                       # Row buffer hit rate, read and write combined
system.mem_ctrls1_0.actEnergy              6964505940                       # Energy for activate commands per rank (pJ)
system.mem_ctrls1_0.preEnergy              3701703720                       # Energy for precharge commands per rank (pJ)
system.mem_ctrls1_0.readEnergy             7727986140                       # Energy for read commands per rank (pJ)
system.mem_ctrls1_0.writeEnergy            2284835760                       # Energy for write commands per rank (pJ)
system.mem_ctrls1_0.refreshEnergy        107596419840.000031                       # Energy for refresh commands per rank (pJ)
system.mem_ctrls1_0.actBackEnergy         63138291240                       # Energy for active background per rank (pJ)
system.mem_ctrls1_0.preBackEnergy          3629398080                       # Energy for precharge background per rank (pJ)
system.mem_ctrls1_0.actPowerDownEnergy   385158429510                       # Energy for active power-down per rank (pJ)
system.mem_ctrls1_0.prePowerDownEnergy   101352632160                       # Energy for precharge power-down per rank (pJ)
system.mem_ctrls1_0.selfRefreshEnergy     35797217025                       # Energy for self refresh per rank (pJ)
system.mem_ctrls1_0.totalEnergy          717382868745                       # Total energy per rank (pJ)
system.mem_ctrls1_0.averagePower           522.947813                       # Core power per rank (mW)
system.mem_ctrls1_0.totalIdleTime        1223817908203                       # Total Idle time Per DRAM Rank
system.mem_ctrls1_0.memoryStateTime::IDLE   4783230847                       # Time in different power states
system.mem_ctrls1_0.memoryStateTime::REF  45605526000                       # Time in different power states
system.mem_ctrls1_0.memoryStateTime::SREF 115238276731                       # Time in different power states
system.mem_ctrls1_0.memoryStateTime::PRE_PDN 263943524521                       # Time in different power states
system.mem_ctrls1_0.memoryStateTime::ACT  97599071653                       # Time in different power states
system.mem_ctrls1_0.memoryStateTime::ACT_PDN 844636205900                       # Time in different power states
system.mem_ctrls1_1.actEnergy              6971560260                       # Energy for activate commands per rank (pJ)
system.mem_ctrls1_1.preEnergy              3705464565                       # Energy for precharge commands per rank (pJ)
system.mem_ctrls1_1.readEnergy             7713034980                       # Energy for read commands per rank (pJ)
system.mem_ctrls1_1.writeEnergy            2283520320                       # Energy for write commands per rank (pJ)
system.mem_ctrls1_1.refreshEnergy        107458125840.000031                       # Energy for refresh commands per rank (pJ)
system.mem_ctrls1_1.actBackEnergy         62832497070                       # Energy for active background per rank (pJ)
system.mem_ctrls1_1.preBackEnergy          3647033280                       # Energy for precharge background per rank (pJ)
system.mem_ctrls1_1.actPowerDownEnergy   384661424850                       # Energy for active power-down per rank (pJ)
system.mem_ctrls1_1.prePowerDownEnergy   100788672480                       # Energy for precharge power-down per rank (pJ)
system.mem_ctrls1_1.selfRefreshEnergy     36669610395                       # Energy for self refresh per rank (pJ)
system.mem_ctrls1_1.totalEnergy          716764324230                       # Total energy per rank (pJ)
system.mem_ctrls1_1.averagePower           522.496914                       # Core power per rank (mW)
system.mem_ctrls1_1.totalIdleTime        1224445864082                       # Total Idle time Per DRAM Rank
system.mem_ctrls1_1.memoryStateTime::IDLE   4840692250                       # Time in different power states
system.mem_ctrls1_1.memoryStateTime::REF  45548298000                       # Time in different power states
system.mem_ctrls1_1.memoryStateTime::SREF 118417325561                       # Time in different power states
system.mem_ctrls1_1.memoryStateTime::PRE_PDN 262468113223                       # Time in different power states
system.mem_ctrls1_1.memoryStateTime::ACT  96970981320                       # Time in different power states
system.mem_ctrls1_1.memoryStateTime::ACT_PDN 843560425298                       # Time in different power states
system.pwrStateResidencyTicks::UNDEFINED 118606502267838                       # Cumulative time (in ticks) in various power states
system.cpu.branchPred.lookups                       0                       # Number of BP lookups
system.cpu.branchPred.condPredicted                 0                       # Number of conditional branches predicted
system.cpu.branchPred.condIncorrect                 0                       # Number of conditional branches incorrect
system.cpu.branchPred.BTBLookups                    0                       # Number of BTB lookups
system.cpu.branchPred.BTBHits                       0                       # Number of BTB hits
system.cpu.branchPred.BTBCorrect                    0                       # Number of correct BTB predictions (this stat may not work properly.
system.cpu.branchPred.BTBHitPct                   nan                       # BTB Hit Percentage
system.cpu.branchPred.usedRAS                       0                       # Number of times the RAS was used to get a target.
system.cpu.branchPred.RASInCorrect                  0                       # Number of incorrect RAS predictions.
system.cpu.branchPred.indirectLookups               0                       # Number of indirect predictor lookups.
system.cpu.branchPred.indirectHits                  0                       # Number of indirect target hits.
system.cpu.branchPred.indirectMisses                0                       # Number of indirect misses.
system.cpu.branchPredindirectMispredicted            0                       # Number of mispredicted indirect branches.
system.cpu_voltage_domain.voltage                   1                       # Voltage in Volts
system.cpu_clk_domain.clock                       333                       # Clock period in ticks
system.cpu.dtb.fetch_hits                           0                       # ITB hits
system.cpu.dtb.fetch_misses                         0                       # ITB misses
system.cpu.dtb.fetch_acv                            0                       # ITB acv
system.cpu.dtb.fetch_accesses                       0                       # ITB accesses
system.cpu.dtb.read_hits                            0                       # DTB read hits
system.cpu.dtb.read_misses                          0                       # DTB read misses
system.cpu.dtb.read_acv                             0                       # DTB read access violations
system.cpu.dtb.read_accesses                        0                       # DTB read accesses
system.cpu.dtb.write_hits                           0                       # DTB write hits
system.cpu.dtb.write_misses                         0                       # DTB write misses
system.cpu.dtb.write_acv                            0                       # DTB write access violations
system.cpu.dtb.write_accesses                       0                       # DTB write accesses
system.cpu.dtb.data_hits                            0                       # DTB hits
system.cpu.dtb.data_misses                          0                       # DTB misses
system.cpu.dtb.data_acv                             0                       # DTB access violations
system.cpu.dtb.data_accesses                        0                       # DTB accesses
system.cpu.itb.fetch_hits                           3                       # ITB hits
system.cpu.itb.fetch_misses                         0                       # ITB misses
system.cpu.itb.fetch_acv                            0                       # ITB acv
system.cpu.itb.fetch_accesses                       3                       # ITB accesses
system.cpu.itb.read_hits                            0                       # DTB read hits
system.cpu.itb.read_misses                          0                       # DTB read misses
system.cpu.itb.read_acv                             0                       # DTB read access violations
system.cpu.itb.read_accesses                        0                       # DTB read accesses
system.cpu.itb.write_hits                           0                       # DTB write hits
system.cpu.itb.write_misses                         0                       # DTB write misses
system.cpu.itb.write_acv                            0                       # DTB write access violations
system.cpu.itb.write_accesses                       0                       # DTB write accesses
system.cpu.itb.data_hits                            0                       # DTB hits
system.cpu.itb.data_misses                          0                       # DTB misses
system.cpu.itb.data_acv                             0                       # DTB access violations
system.cpu.itb.data_accesses                        0                       # DTB accesses
system.cpu.workload.num_syscalls                    0                       # Number of system calls
system.cpu.pwrStateResidencyTicks::ON    1371805835652                       # Cumulative time (in ticks) in various power states
system.cpu.numCycles                              359                       # number of cpu cycles simulated
system.cpu.numWorkItemsStarted                      0                       # number of work items this cpu started
system.cpu.numWorkItemsCompleted                    0                       # number of work items this cpu completed
system.cpu.fetch.icacheStallCycles                 23                       # Number of cycles fetch is stalled on an Icache miss
system.cpu.fetch.Insts                              7                       # Number of instructions fetch has processed
system.cpu.fetch.Cycles                             1                       # Number of cycles fetch has run and was not squashing or blocked
system.cpu.fetch.SquashCycles                       3                       # Number of cycles fetch has spent squashing
system.cpu.fetch.PendingDrainCycles                 3                       # Number of cycles fetch has spent waiting on pipes to drain
system.cpu.fetch.CacheLines                         3                       # Number of cache lines fetched
system.cpu.fetch.IcacheSquashes                     2                       # Number of outstanding Icache misses that were squashed
system.cpu.fetch.rateDist::samples                 28                       # Number of instructions fetched each cycle (Total)
system.cpu.fetch.rateDist::mean              0.250000                       # Number of instructions fetched each cycle (Total)
system.cpu.fetch.rateDist::stdev             1.322876                       # Number of instructions fetched each cycle (Total)
system.cpu.fetch.rateDist::underflows               0      0.00%      0.00% # Number of instructions fetched each cycle (Total)
system.cpu.fetch.rateDist::0                       27     96.43%     96.43% # Number of instructions fetched each cycle (Total)
system.cpu.fetch.rateDist::1                        0      0.00%     96.43% # Number of instructions fetched each cycle (Total)
system.cpu.fetch.rateDist::2                        0      0.00%     96.43% # Number of instructions fetched each cycle (Total)
system.cpu.fetch.rateDist::3                        0      0.00%     96.43% # Number of instructions fetched each cycle (Total)
system.cpu.fetch.rateDist::4                        0      0.00%     96.43% # Number of instructions fetched each cycle (Total)
system.cpu.fetch.rateDist::5                        0      0.00%     96.43% # Number of instructions fetched each cycle (Total)
system.cpu.fetch.rateDist::6                        0      0.00%     96.43% # Number of instructions fetched each cycle (Total)
system.cpu.fetch.rateDist::7                        1      3.57%    100.00% # Number of instructions fetched each cycle (Total)
system.cpu.fetch.rateDist::8                        0      0.00%    100.00% # Number of instructions fetched each cycle (Total)
system.cpu.fetch.rateDist::overflows                0      0.00%    100.00% # Number of instructions fetched each cycle (Total)
system.cpu.fetch.rateDist::min_value                0                       # Number of instructions fetched each cycle (Total)
system.cpu.fetch.rateDist::max_value                7                       # Number of instructions fetched each cycle (Total)
system.cpu.fetch.rateDist::total                   28                       # Number of instructions fetched each cycle (Total)
system.cpu.fetch.branchRate                         0                       # Number of branch fetches per cycle
system.cpu.fetch.rate                        0.019499                       # Number of inst fetches per cycle
system.cpu.decode.IdleCycles                       25                       # Number of cycles decode is idle
[...]
system.switch_cpus_1.iq.fu_busy_rate         0.124753                       # FU busy rate (busy events/executed inst)
system.switch_cpus_1.iq.int_inst_queue_reads    377826596                       # Number of integer instruction queue reads
system.switch_cpus_1.iq.int_inst_queue_writes     88303467                       # Number of integer instruction queue writes
system.switch_cpus_1.iq.int_inst_queue_wakeup_accesses     82016070                       # Number of integer instruction queue wakeup accesses
system.switch_cpus_1.iq.fp_inst_queue_reads    277286328                       # Number of floating instruction queue reads
system.switch_cpus_1.iq.fp_inst_queue_writes    139210697                       # Number of floating instruction queue writes
system.switch_cpus_1.iq.fp_inst_queue_wakeup_accesses    125975419                       # Number of floating instruction queue wakeup accesses
system.switch_cpus_1.iq.int_alu_accesses     84669180                       # Number of integer alu accesses
system.switch_cpus_1.iq.fp_alu_accesses     150506606                       # Number of floating point alu accesses
system.switch_cpus_1.iew.lsq.thread0.forwLoads      1425870                       # Number of loads that had data forwarded from stores
system.switch_cpus_1.iew.lsq.thread0.invAddrLoads            0                       # Number of loads ignored due to an invalid address
system.switch_cpus_1.iew.lsq.thread0.squashedLoads      3337273                       # Number of loads squashed
system.switch_cpus_1.iew.lsq.thread0.ignoredResponses           50                       # Number of memory responses ignored because the instruction is squashed
system.switch_cpus_1.iew.lsq.thread0.memOrderViolation         1772                       # Number of memory ordering violations
system.switch_cpus_1.iew.lsq.thread0.squashedStores       796318                       # Number of stores squashed
system.switch_cpus_1.iew.lsq.thread0.invAddrSwpfs            0                       # Number of software prefetches ignored due to an invalid address
system.switch_cpus_1.iew.lsq.thread0.blockedLoads            0                       # Number of blocked loads due to partial load-store forwarding
system.switch_cpus_1.iew.lsq.thread0.rescheduledLoads            0                       # Number of loads that were rescheduled
system.switch_cpus_1.iew.lsq.thread0.cacheBlocked       310829                       # Number of times an access to memory failed due to the cache being blocked
system.switch_cpus_1.iew.iewIdleCycles              0                       # Number of cycles IEW is idle
system.switch_cpus_1.iew.iewSquashCycles       140427                       # Number of cycles IEW is squashing
system.switch_cpus_1.iew.iewBlockCycles      45195611                       # Number of cycles IEW is blocking
system.switch_cpus_1.iew.iewUnblockCycles     14200957                       # Number of cycles IEW is unblocking
system.switch_cpus_1.iew.iewDispatchedInsts    213935570                       # Number of instructions dispatched to IQ
system.switch_cpus_1.iew.iewDispSquashedInsts          636                       # Number of squashed instructions skipped by dispatch
system.switch_cpus_1.iew.iewDispLoadInsts     44137322                       # Number of dispatched load instructions
system.switch_cpus_1.iew.iewDispStoreInsts     13325360                       # Number of dispatched store instructions
system.switch_cpus_1.iew.iewDispNonSpecInsts            0                       # Number of dispatched non-speculative instructions
system.switch_cpus_1.iew.iewIQFullEvents       893317                       # Number of times the IQ has become full, causing a stall
system.switch_cpus_1.iew.iewLSQFullEvents     13068066                       # Number of times the LSQ has become full, causing a stall
system.switch_cpus_1.iew.memOrderViolationEvents         1772                       # Number of memory order violations
system.switch_cpus_1.iew.predictedTakenIncorrect          548                       # Number of branches that were predicted taken incorrectly
system.switch_cpus_1.iew.predictedNotTakenIncorrect        15426                       # Number of branches that were predicted not taken incorrectly
system.switch_cpus_1.iew.branchMispredicts        15974                       # Number of branch mispredicts detected at execute
system.switch_cpus_1.iew.iewExecutedInsts    208884533                       # Number of executed instructions
system.switch_cpus_1.iew.iewExecLoadInsts     44108955                       # Number of load instructions executed
system.switch_cpus_1.iew.iewExecSquashedInsts       206495                       # Number of squashed instructions skipped in execute
system.switch_cpus_1.iew.exec_swp                   0                       # number of swp insts executed
system.switch_cpus_1.iew.exec_nop              179336                       # number of nop insts executed
system.switch_cpus_1.iew.exec_refs           57062852                       # number of memory reference insts executed
system.switch_cpus_1.iew.exec_branches        1499240                       # Number of branches executed
system.switch_cpus_1.iew.exec_stores         12953897                       # Number of stores executed
system.switch_cpus_1.iew.exec_rate           0.990790                       # Inst execution rate
system.switch_cpus_1.iew.wb_sent            208444680                       # cumulative count of insts sent to commit
system.switch_cpus_1.iew.wb_count           207991489                       # cumulative count of insts written-back
system.switch_cpus_1.iew.wb_producers       138508232                       # num instructions producing a value
system.switch_cpus_1.iew.wb_consumers       165923634                       # num instructions consuming a value
system.switch_cpus_1.iew.wb_rate             0.986554                       # insts written-back per cycle
system.switch_cpus_1.iew.wb_fanout           0.834771                       # average fanout of values written-back
system.switch_cpus_1.commit.commitSquashedInsts     11082026                       # The number of squashed insts skipped by commit
system.switch_cpus_1.commit.branchMispredicts        15480                       # The number of times a branch was mispredicted
system.switch_cpus_1.commit.committed_per_cycle::samples    209387959                       # Number of insts commited each cycle
system.switch_cpus_1.commit.committed_per_cycle::mean     0.955993                       # Number of insts commited each cycle
system.switch_cpus_1.commit.committed_per_cycle::stdev     2.404843                       # Number of insts commited each cycle
system.switch_cpus_1.commit.committed_per_cycle::underflows            0      0.00%      0.00% # Number of insts commited each cycle
system.switch_cpus_1.commit.committed_per_cycle::0    174489251     83.33%     83.33% # Number of insts commited each cycle
system.switch_cpus_1.commit.committed_per_cycle::1      3959306      1.89%     85.22% # Number of insts commited each cycle
system.switch_cpus_1.commit.committed_per_cycle::2      2990378      1.43%     86.65% # Number of insts commited each cycle
system.switch_cpus_1.commit.committed_per_cycle::3      2712203      1.30%     87.95% # Number of insts commited each cycle
system.switch_cpus_1.commit.committed_per_cycle::4      2418272      1.15%     89.10% # Number of insts commited each cycle
system.switch_cpus_1.commit.committed_per_cycle::5      2003730      0.96%     90.06% # Number of insts commited each cycle
system.switch_cpus_1.commit.committed_per_cycle::6      1374832      0.66%     90.72% # Number of insts commited each cycle
system.switch_cpus_1.commit.committed_per_cycle::7      1363841      0.65%     91.37% # Number of insts commited each cycle
system.switch_cpus_1.commit.committed_per_cycle::8     18076146      8.63%    100.00% # Number of insts commited each cycle
system.switch_cpus_1.commit.committed_per_cycle::overflows            0      0.00%    100.00% # Number of insts commited each cycle
system.switch_cpus_1.commit.committed_per_cycle::min_value            0                       # Number of insts commited each cycle
system.switch_cpus_1.commit.committed_per_cycle::max_value            8                       # Number of insts commited each cycle
system.switch_cpus_1.commit.committed_per_cycle::total    209387959                       # Number of insts commited each cycle
system.switch_cpus_1.commit.committedInsts    200173456                       # Number of instructions committed
system.switch_cpus_1.commit.committedOps    200173456                       # Number of ops (including micro ops) committed
system.switch_cpus_1.commit.swp_count               0                       # Number of s/w prefetches committed
system.switch_cpus_1.commit.refs             53329056                       # Number of memory references committed
system.switch_cpus_1.commit.loads            40800023                       # Number of loads committed
system.switch_cpus_1.commit.membars                 0                       # Number of memory barriers committed
system.switch_cpus_1.commit.branches          1403066                       # Number of branches committed
system.switch_cpus_1.commit.fp_insts        122294760                       # Number of committed floating point instructions.
system.switch_cpus_1.commit.int_insts       127004953                       # Number of committed integer instructions.
system.switch_cpus_1.commit.function_calls            7                       # Number of function calls committed.
system.switch_cpus_1.commit.op_class_0::No_OpClass       173452      0.09%      0.09% # Class of committed instruction
system.switch_cpus_1.commit.op_class_0::IntAlu     61200061     30.57%     30.66% # Class of committed instruction
system.switch_cpus_1.commit.op_class_0::IntMult            0      0.00%     30.66% # Class of committed instruction
system.switch_cpus_1.commit.op_class_0::IntDiv            0      0.00%     30.66% # Class of committed instruction
system.switch_cpus_1.commit.op_class_0::FloatAdd     35376177     17.67%     48.33% # Class of committed instruction
system.switch_cpus_1.commit.op_class_0::FloatCmp      8364224      4.18%     52.51% # Class of committed instruction
system.switch_cpus_1.commit.op_class_0::FloatCvt     12546336      6.27%     58.78% # Class of committed instruction
system.switch_cpus_1.commit.op_class_0::FloatMult     26817554     13.40%     72.18% # Class of committed instruction
system.switch_cpus_1.commit.op_class_0::FloatMultAcc            0      0.00%     72.18% # Class of committed instruction
system.switch_cpus_1.commit.op_class_0::FloatDiv      2366596      1.18%     73.36% # Class of committed instruction
system.switch_cpus_1.commit.op_class_0::FloatMisc            0      0.00%     73.36% # Class of committed instruction
system.switch_cpus_1.commit.op_class_0::FloatSqrt            0      0.00%     73.36% # Class of committed instruction
system.switch_cpus_1.commit.op_class_0::SimdAdd            0      0.00%     73.36% # Class of committed instruction
system.switch_cpus_1.commit.op_class_0::SimdAddAcc            0      0.00%     73.36% # Class of committed instruction
system.switch_cpus_1.commit.op_class_0::SimdAlu            0      0.00%     73.36% # Class of committed instruction
system.switch_cpus_1.commit.op_class_0::SimdCmp            0      0.00%     73.36% # Class of committed instruction
system.switch_cpus_1.commit.op_class_0::SimdCvt            0      0.00%     73.36% # Class of committed instruction
system.switch_cpus_1.commit.op_class_0::SimdMisc            0      0.00%     73.36% # Class of committed instruction
system.switch_cpus_1.commit.op_class_0::SimdMult            0      0.00%     73.36% # Class of committed instruction
system.switch_cpus_1.commit.op_class_0::SimdMultAcc            0      0.00%     73.36% # Class of committed instruction
system.switch_cpus_1.commit.op_class_0::SimdShift            0      0.00%     73.36% # Class of committed instruction
system.switch_cpus_1.commit.op_class_0::SimdShiftAcc            0      0.00%     73.36% # Class of committed instruction
system.switch_cpus_1.commit.op_class_0::SimdSqrt            0      0.00%     73.36% # Class of committed instruction
system.switch_cpus_1.commit.op_class_0::SimdFloatAdd            0      0.00%     73.36% # Class of committed instruction
system.switch_cpus_1.commit.op_class_0::SimdFloatAlu            0      0.00%     73.36% # Class of committed instruction
system.switch_cpus_1.commit.op_class_0::SimdFloatCmp            0      0.00%     73.36% # Class of committed instruction
system.switch_cpus_1.commit.op_class_0::SimdFloatCvt            0      0.00%     73.36% # Class of committed instruction
system.switch_cpus_1.commit.op_class_0::SimdFloatDiv            0      0.00%     73.36% # Class of committed instruction
system.switch_cpus_1.commit.op_class_0::SimdFloatMisc            0      0.00%     73.36% # Class of committed instruction
system.switch_cpus_1.commit.op_class_0::SimdFloatMult            0      0.00%     73.36% # Class of committed instruction
system.switch_cpus_1.commit.op_class_0::SimdFloatMultAcc            0      0.00%     73.36% # Class of committed instruction
system.switch_cpus_1.commit.op_class_0::SimdFloatSqrt            0      0.00%     73.36% # Class of committed instruction
system.switch_cpus_1.commit.op_class_0::MemRead     12460377      6.22%     79.58% # Class of committed instruction
system.switch_cpus_1.commit.op_class_0::MemWrite      4044806      2.02%     81.60% # Class of committed instruction
system.switch_cpus_1.commit.op_class_0::FloatMemRead     28339646     14.16%     95.76% # Class of committed instruction
system.switch_cpus_1.commit.op_class_0::FloatMemWrite      8484227      4.24%    100.00% # Class of committed instruction
system.switch_cpus_1.commit.op_class_0::IprAccess            0      0.00%    100.00% # Class of committed instruction
system.switch_cpus_1.commit.op_class_0::InstPrefetch            0      0.00%    100.00% # Class of committed instruction
system.switch_cpus_1.commit.op_class_0::total    200173456                       # Class of committed instruction
system.switch_cpus_1.commit.bw_lim_events     18076146                       # number cycles where commit BW limit reached
system.switch_cpus_1.rob.rob_reads          400962185                       # The number of ROB reads
system.switch_cpus_1.rob.rob_writes         423946662                       # The number of ROB writes
system.switch_cpus_1.timesIdled                    14                       # Number of times that the entire CPU went into an idle state and unscheduled itself
system.switch_cpus_1.idleCycles                  2593                       # Total number of cycles that the CPU has spent unscheduled due to idling
system.switch_cpus_1.committedInsts         200000004                       # Number of Instructions Simulated
system.switch_cpus_1.committedOps           200000004                       # Number of Ops (including micro ops) Simulated
system.switch_cpus_1.cpi                     1.054131                       # CPI: Cycles Per Instruction
system.switch_cpus_1.cpi_total               1.054131                       # CPI: Total CPI of All Threads
system.switch_cpus_1.ipc                     0.948649                       # IPC: Instructions Per Cycle
system.switch_cpus_1.ipc_total               0.948649                       # IPC: Total IPC of All Threads
system.switch_cpus_1.int_regfile_reads      175650690                       # number of integer regfile reads
system.switch_cpus_1.int_regfile_writes      84673610                       # number of integer regfile writes
system.switch_cpus_1.fp_regfile_reads       170480179                       # number of floating regfile reads
system.switch_cpus_1.fp_regfile_writes      108911404                       # number of floating regfile writes
system.tol3bus.snoop_filter.tot_requests      9621282                       # Total number of requests made to the snoop filter.
system.tol3bus.snoop_filter.hit_single_requests      4808454                       # Number of requests hitting in the snoop filter with a single holder of the requested data.
system.tol3bus.snoop_filter.hit_multi_requests            0                       # Number of requests hitting in the snoop filter with multiple (>1) holders of the requested data.
system.tol3bus.snoop_filter.tot_snoops           1827                       # Total number of snoops made to the snoop filter.
system.tol3bus.snoop_filter.hit_single_snoops         1827                       # Number of snoops hitting in the snoop filter with a single holder of the requested data.
system.tol3bus.snoop_filter.hit_multi_snoops            0                       # Number of snoops hitting in the snoop filter with multiple (>1) holders of the requested data.
system.tol3bus.pwrStateResidencyTicks::UNDEFINED 118606502267838                       # Cumulative time (in ticks) in various power states
system.tol3bus.trans_dist::ReadResp           4255837                       # Transaction distribution
system.tol3bus.trans_dist::WritebackDirty      3554078                       # Transaction distribution
system.tol3bus.trans_dist::CleanEvict         5514603                       # Transaction distribution
system.tol3bus.trans_dist::UpgradeReq               1                       # Transaction distribution
system.tol3bus.trans_dist::UpgradeResp              1                       # Transaction distribution
system.tol3bus.trans_dist::ReadExReq           556991                       # Transaction distribution
system.tol3bus.trans_dist::ReadExResp          556991                       # Transaction distribution
system.tol3bus.trans_dist::ReadSharedReq      4255837                       # Transaction distribution
system.tol3bus.pkt_count_system.cpu.l2.mem_side::system.l3.cpu_side     14434111                       # Packet count per connected master and slave (bytes)
system.tol3bus.pkt_size_system.cpu.l2.mem_side::system.l3.cpu_side    423452288                       # Cumulative packet size per connected master and slave (bytes)
system.tol3bus.snoops                         4260228                       # Total snoops (count)
system.tol3bus.snoopTraffic                 112029696                       # Total snoop traffic (bytes)
system.tol3bus.snoop_fanout::samples          9073057                       # Request fanout histogram
system.tol3bus.snoop_fanout::mean            0.000201                       # Request fanout histogram
system.tol3bus.snoop_fanout::stdev           0.014189                       # Request fanout histogram
system.tol3bus.snoop_fanout::underflows             0      0.00%      0.00% # Request fanout histogram
system.tol3bus.snoop_fanout::0                9071230     99.98%     99.98% # Request fanout histogram
system.tol3bus.snoop_fanout::1                   1827      0.02%    100.00% # Request fanout histogram
system.tol3bus.snoop_fanout::overflows              0      0.00%    100.00% # Request fanout histogram
system.tol3bus.snoop_fanout::min_value              0                       # Request fanout histogram
system.tol3bus.snoop_fanout::max_value              1                       # Request fanout histogram
system.tol3bus.snoop_fanout::total            9073057                       # Request fanout histogram
system.tol3bus.reqLayer0.occupancy         3804490368                       # Layer occupancy (ticks)
system.tol3bus.reqLayer0.utilization              0.3                       # Layer utilization (%)
system.tol3bus.respLayer0.occupancy        3205343781                       # Layer occupancy (ticks)
system.tol3bus.respLayer0.utilization             0.2                       # Layer utilization (%)

---------- End Simulation Statistics   ----------
