
---------- Begin Simulation Statistics ----------
sim_seconds                                  3.672885                       # Number of seconds simulated
sim_ticks                                3672884503269                       # Number of ticks simulated
final_tick                               147149872820343                       # Number of ticks from beginning of simulation (restored from checkpoints and never reset)
sim_freq                                 1000000000000                       # Frequency of simulated ticks
host_inst_rate                                 285263                       # Simulator instruction rate (inst/s)
host_op_rate                                   285263                       # Simulator op (including micro ops) rate (op/s)
host_tick_rate                              873113734                       # Simulator tick rate (ticks/s)
host_mem_usage                                2541896                       # Number of bytes of host memory used
host_seconds                                  4206.65                       # Real time elapsed on the host
sim_insts                                  1200000006                       # Number of instructions simulated
sim_ops                                    1200000006                       # Number of ops (including micro ops) simulated
system.voltage_domain.voltage                       1                       # Voltage in Volts
system.clk_domain.clock                          1000                       # Clock period in ticks
system.mem_ctrls0.pwrStateResidencyTicks::UNDEFINED 147149872820343                       # Cumulative time (in ticks) in various power states
system.mem_ctrls0.bytes_read::cpu.inst            128                       # Number of bytes read from this memory
system.mem_ctrls0.bytes_read::cpu.data            256                       # Number of bytes read from this memory
system.mem_ctrls0.bytes_read::switch_cpus.inst        20864                       # Number of bytes read from this memory
system.mem_ctrls0.bytes_read::switch_cpus.data    440896256                       # Number of bytes read from this memory
system.mem_ctrls0.bytes_read::switch_cpus_1.inst         6720                       # Number of bytes read from this memory
system.mem_ctrls0.bytes_read::switch_cpus_1.data     83807232                       # Number of bytes read from this memory
system.mem_ctrls0.bytes_read::total         524731456                       # Number of bytes read from this memory
system.mem_ctrls0.bytes_inst_read::cpu.inst          128                       # Number of instructions bytes read from this memory
system.mem_ctrls0.bytes_inst_read::switch_cpus.inst        20864                       # Number of instructions bytes read from this memory
system.mem_ctrls0.bytes_inst_read::switch_cpus_1.inst         6720                       # Number of instructions bytes read from this memory
system.mem_ctrls0.bytes_inst_read::total        27712                       # Number of instructions bytes read from this memory
system.mem_ctrls0.bytes_written::writebacks    280430272                       # Number of bytes written to this memory
system.mem_ctrls0.bytes_written::total      280430272                       # Number of bytes written to this memory
system.mem_ctrls0.num_reads::cpu.inst               2                       # Number of read requests responded to by this memory
system.mem_ctrls0.num_reads::cpu.data               4                       # Number of read requests responded to by this memory
system.mem_ctrls0.num_reads::switch_cpus.inst          326                       # Number of read requests responded to by this memory
system.mem_ctrls0.num_reads::switch_cpus.data      6889004                       # Number of read requests responded to by this memory
system.mem_ctrls0.num_reads::switch_cpus_1.inst          105                       # Number of read requests responded to by this memory
system.mem_ctrls0.num_reads::switch_cpus_1.data      1309488                       # Number of read requests responded to by this memory
system.mem_ctrls0.num_reads::total            8198929                       # Number of read requests responded to by this memory
system.mem_ctrls0.num_writes::writebacks      4381723                       # Number of write requests responded to by this memory
system.mem_ctrls0.num_writes::total           4381723                       # Number of write requests responded to by this memory
system.mem_ctrls0.bw_read::cpu.inst                35                       # Total read bandwidth from this memory (bytes/s)
system.mem_ctrls0.bw_read::cpu.data                70                       # Total read bandwidth from this memory (bytes/s)
system.mem_ctrls0.bw_read::switch_cpus.inst         5681                       # Total read bandwidth from this memory (bytes/s)
system.mem_ctrls0.bw_read::switch_cpus.data    120040871                       # Total read bandwidth from this memory (bytes/s)
system.mem_ctrls0.bw_read::switch_cpus_1.inst         1830                       # Total read bandwidth from this memory (bytes/s)
system.mem_ctrls0.bw_read::switch_cpus_1.data     22817824                       # Total read bandwidth from this memory (bytes/s)
system.mem_ctrls0.bw_read::total            142866310                       # Total read bandwidth from this memory (bytes/s)
system.mem_ctrls0.bw_inst_read::cpu.inst           35                       # Instruction read bandwidth from this memory (bytes/s)
system.mem_ctrls0.bw_inst_read::switch_cpus.inst         5681                       # Instruction read bandwidth from this memory (bytes/s)
system.mem_ctrls0.bw_inst_read::switch_cpus_1.inst         1830                       # Instruction read bandwidth from this memory (bytes/s)
system.mem_ctrls0.bw_inst_read::total            7545                       # Instruction read bandwidth from this memory (bytes/s)
system.mem_ctrls0.bw_write::writebacks       76351508                       # Write bandwidth from this memory (bytes/s)
system.mem_ctrls0.bw_write::total            76351508                       # Write bandwidth from this memory (bytes/s)
system.mem_ctrls0.bw_total::writebacks       76351508                       # Total bandwidth to/from this memory (bytes/s)
system.mem_ctrls0.bw_total::cpu.inst               35                       # Total bandwidth to/from this memory (bytes/s)
system.mem_ctrls0.bw_total::cpu.data               70                       # Total bandwidth to/from this memory (bytes/s)
system.mem_ctrls0.bw_total::switch_cpus.inst         5681                       # Total bandwidth to/from this memory (bytes/s)
system.mem_ctrls0.bw_total::switch_cpus.data    120040871                       # Total bandwidth to/from this memory (bytes/s)
system.mem_ctrls0.bw_total::switch_cpus_1.inst         1830                       # Total bandwidth to/from this memory (bytes/s)
system.mem_ctrls0.bw_total::switch_cpus_1.data     22817824                       # Total bandwidth to/from this memory (bytes/s)
system.mem_ctrls0.bw_total::total           219217818                       # Total bandwidth to/from this memory (bytes/s)
system.mem_ctrls0.readReqs                    8198929                       # Number of read requests accepted
system.mem_ctrls0.writeReqs                   4381723                       # Number of write requests accepted
system.mem_ctrls0.readBursts                  8198929                       # Number of DRAM read bursts, including those serviced by the write queue
system.mem_ctrls0.writeBursts                 4381723                       # Number of DRAM write bursts, including those merged in the write queue
system.mem_ctrls0.bytesReadDRAM             524731008                       # Total number of bytes read from DRAM
system.mem_ctrls0.bytesReadWrQ                    448                       # Total number of bytes read from write queue
system.mem_ctrls0.bytesWritten              280428224                       # Total number of bytes written to DRAM
system.mem_ctrls0.bytesReadSys              524731456                       # Total read bytes from the system interface side
system.mem_ctrls0.bytesWrittenSys           280430272                       # Total written bytes from the system interface side
system.mem_ctrls0.servicedByWrQ                     7                       # Number of DRAM read bursts serviced by the write queue
system.mem_ctrls0.mergedWrBursts                    0                       # Number of DRAM write bursts merged with an existing one
system.mem_ctrls0.neitherReadNorWriteReqs            0                       # Number of requests that are neither read nor write
system.mem_ctrls0.perBankRdBursts::0           512735                       # Per bank write bursts
system.mem_ctrls0.perBankRdBursts::1           512166                       # Per bank write bursts
system.mem_ctrls0.perBankRdBursts::2           512982                       # Per bank write bursts
system.mem_ctrls0.perBankRdBursts::3           513190                       # Per bank write bursts
system.mem_ctrls0.perBankRdBursts::4           513129                       # Per bank write bursts
system.mem_ctrls0.perBankRdBursts::5           511918                       # Per bank write bursts
system.mem_ctrls0.perBankRdBursts::6           511709                       # Per bank write bursts
system.mem_ctrls0.perBankRdBursts::7           512325                       # Per bank write bursts
system.mem_ctrls0.perBankRdBursts::8           512404                       # Per bank write bursts
system.mem_ctrls0.perBankRdBursts::9           512030                       # Per bank write bursts
system.mem_ctrls0.perBankRdBursts::10          511012                       # Per bank write bursts
system.mem_ctrls0.perBankRdBursts::11          512957                       # Per bank write bursts
system.mem_ctrls0.perBankRdBursts::12          512705                       # Per bank write bursts
system.mem_ctrls0.perBankRdBursts::13          512254                       # Per bank write bursts
system.mem_ctrls0.perBankRdBursts::14          512656                       # Per bank write bursts
system.mem_ctrls0.perBankRdBursts::15          512750                       # Per bank write bursts
system.mem_ctrls0.perBankWrBursts::0           275451                       # Per bank write bursts
system.mem_ctrls0.perBankWrBursts::1           274004                       # Per bank write bursts
system.mem_ctrls0.perBankWrBursts::2           273425                       # Per bank write bursts
system.mem_ctrls0.perBankWrBursts::3           274014                       # Per bank write bursts
system.mem_ctrls0.perBankWrBursts::4           274030                       # Per bank write bursts
system.mem_ctrls0.perBankWrBursts::5           273840                       # Per bank write bursts
system.mem_ctrls0.perBankWrBursts::6           273619                       # Per bank write bursts
system.mem_ctrls0.perBankWrBursts::7           273158                       # Per bank write bursts
system.mem_ctrls0.perBankWrBursts::8           272925                       # Per bank write bursts
system.mem_ctrls0.perBankWrBursts::9           272796                       # Per bank write bursts
system.mem_ctrls0.perBankWrBursts::10          273787                       # Per bank write bursts
system.mem_ctrls0.perBankWrBursts::11          275313                       # Per bank write bursts
system.mem_ctrls0.perBankWrBursts::12          274162                       # Per bank write bursts
system.mem_ctrls0.perBankWrBursts::13          272899                       # Per bank write bursts
system.mem_ctrls0.perBankWrBursts::14          273330                       # Per bank write bursts
system.mem_ctrls0.perBankWrBursts::15          274938                       # Per bank write bursts
system.mem_ctrls0.numRdRetry                        0                       # Number of times read queue was full causing retry
system.mem_ctrls0.numWrRetry                        0                       # Number of times write queue was full causing retry
system.mem_ctrls0.totGap                 3672884476629                       # Total gap between requests
system.mem_ctrls0.readPktSize::0                    0                       # Read request sizes (log2)
system.mem_ctrls0.readPktSize::1                    0                       # Read request sizes (log2)
system.mem_ctrls0.readPktSize::2                    0                       # Read request sizes (log2)
system.mem_ctrls0.readPktSize::3                    0                       # Read request sizes (log2)
system.mem_ctrls0.readPktSize::4                    0                       # Read request sizes (log2)
system.mem_ctrls0.readPktSize::5                    0                       # Read request sizes (log2)
system.mem_ctrls0.readPktSize::6              8198929                       # Read request sizes (log2)
system.mem_ctrls0.writePktSize::0                   0                       # Write request sizes (log2)
system.mem_ctrls0.writePktSize::1                   0                       # Write request sizes (log2)
system.mem_ctrls0.writePktSize::2                   0                       # Write request sizes (log2)
system.mem_ctrls0.writePktSize::3                   0                       # Write request sizes (log2)
system.mem_ctrls0.writePktSize::4                   0                       # Write request sizes (log2)
system.mem_ctrls0.writePktSize::5                   0                       # Write request sizes (log2)
system.mem_ctrls0.writePktSize::6             4381723                       # Write request sizes (log2)
system.mem_ctrls0.rdQLenPdf::0                7776697                       # What read queue length does an incoming req see
system.mem_ctrls0.rdQLenPdf::1                 312870                       # What read queue length does an incoming req see
system.mem_ctrls0.rdQLenPdf::2                  96173                       # What read queue length does an incoming req see
system.mem_ctrls0.rdQLenPdf::3                  13182                       # What read queue length does an incoming req see
system.mem_ctrls0.rdQLenPdf::4                      0                       # What read queue length does an incoming req see
system.mem_ctrls0.rdQLenPdf::5                      0                       # What read queue length does an incoming req see
system.mem_ctrls0.rdQLenPdf::6                      0                       # What read queue length does an incoming req see
system.mem_ctrls0.rdQLenPdf::7                      0                       # What read queue length does an incoming req see
system.mem_ctrls0.rdQLenPdf::8                      0                       # What read queue length does an incoming req see
system.mem_ctrls0.rdQLenPdf::9                      0                       # What read queue length does an incoming req see
system.mem_ctrls0.rdQLenPdf::10                     0                       # What read queue length does an incoming req see
system.mem_ctrls0.rdQLenPdf::11                     0                       # What read queue length does an incoming req see
system.mem_ctrls0.rdQLenPdf::12                     0                       # What read queue length does an incoming req see
system.mem_ctrls0.rdQLenPdf::13                     0                       # What read queue length does an incoming req see
system.mem_ctrls0.rdQLenPdf::14                     0                       # What read queue length does an incoming req see
system.mem_ctrls0.rdQLenPdf::15                     0                       # What read queue length does an incoming req see
system.mem_ctrls0.rdQLenPdf::16                     0                       # What read queue length does an incoming req see
system.mem_ctrls0.rdQLenPdf::17                     0                       # What read queue length does an incoming req see
system.mem_ctrls0.rdQLenPdf::18                     0                       # What read queue length does an incoming req see
system.mem_ctrls0.rdQLenPdf::19                     0                       # What read queue length does an incoming req see
system.mem_ctrls0.rdQLenPdf::20                     0                       # What read queue length does an incoming req see
system.mem_ctrls0.rdQLenPdf::21                     0                       # What read queue length does an incoming req see
system.mem_ctrls0.rdQLenPdf::22                     0                       # What read queue length does an incoming req see
system.mem_ctrls0.rdQLenPdf::23                     0                       # What read queue length does an incoming req see
system.mem_ctrls0.rdQLenPdf::24                     0                       # What read queue length does an incoming req see
system.mem_ctrls0.rdQLenPdf::25                     0                       # What read queue length does an incoming req see
system.mem_ctrls0.rdQLenPdf::26                     0                       # What read queue length does an incoming req see
system.mem_ctrls0.rdQLenPdf::27                     0                       # What read queue length does an incoming req see
system.mem_ctrls0.rdQLenPdf::28                     0                       # What read queue length does an incoming req see
system.mem_ctrls0.rdQLenPdf::29                     0                       # What read queue length does an incoming req see
system.mem_ctrls0.rdQLenPdf::30                     0                       # What read queue length does an incoming req see
system.mem_ctrls0.rdQLenPdf::31                     0                       # What read queue length does an incoming req see
system.mem_ctrls0.wrQLenPdf::0                      2                       # What write queue length does an incoming req see
system.mem_ctrls0.wrQLenPdf::1                      2                       # What write queue length does an incoming req see
system.mem_ctrls0.wrQLenPdf::2                      2                       # What write queue length does an incoming req see
system.mem_ctrls0.wrQLenPdf::3                      2                       # What write queue length does an incoming req see
system.mem_ctrls0.wrQLenPdf::4                      2                       # What write queue length does an incoming req see
system.mem_ctrls0.wrQLenPdf::5                      2                       # What write queue length does an incoming req see
system.mem_ctrls0.wrQLenPdf::6                      2                       # What write queue length does an incoming req see
system.mem_ctrls0.wrQLenPdf::7                      2                       # What write queue length does an incoming req see
system.mem_ctrls0.wrQLenPdf::8                      2                       # What write queue length does an incoming req see
system.mem_ctrls0.wrQLenPdf::9                      2                       # What write queue length does an incoming req see
system.mem_ctrls0.wrQLenPdf::10                     2                       # What write queue length does an incoming req see
system.mem_ctrls0.wrQLenPdf::11                     2                       # What write queue length does an incoming req see
system.mem_ctrls0.wrQLenPdf::12                     2                       # What write queue length does an incoming req see
system.mem_ctrls0.wrQLenPdf::13                     2                       # What write queue length does an incoming req see
system.mem_ctrls0.wrQLenPdf::14                     2                       # What write queue length does an incoming req see
system.mem_ctrls0.wrQLenPdf::15                198032                       # What write queue length does an incoming req see
system.mem_ctrls0.wrQLenPdf::16                209225                       # What write queue length does an incoming req see
system.mem_ctrls0.wrQLenPdf::17                243907                       # What write queue length does an incoming req see
system.mem_ctrls0.wrQLenPdf::18                247630                       # What write queue length does an incoming req see
system.mem_ctrls0.wrQLenPdf::19                248114                       # What write queue length does an incoming req see
system.mem_ctrls0.wrQLenPdf::20                248226                       # What write queue length does an incoming req see
system.mem_ctrls0.wrQLenPdf::21                248336                       # What write queue length does an incoming req see
system.mem_ctrls0.wrQLenPdf::22                248591                       # What write queue length does an incoming req see
system.mem_ctrls0.wrQLenPdf::23                248873                       # What write queue length does an incoming req see
system.mem_ctrls0.wrQLenPdf::24                248915                       # What write queue length does an incoming req see
system.mem_ctrls0.wrQLenPdf::25                248733                       # What write queue length does an incoming req see
system.mem_ctrls0.wrQLenPdf::26                248699                       # What write queue length does an incoming req see
system.mem_ctrls0.wrQLenPdf::27                248853                       # What write queue length does an incoming req see
system.mem_ctrls0.wrQLenPdf::28                248842                       # What write queue length does an incoming req see
system.mem_ctrls0.wrQLenPdf::29                249157                       # What write queue length does an incoming req see
system.mem_ctrls0.wrQLenPdf::30                251485                       # What write queue length does an incoming req see
system.mem_ctrls0.wrQLenPdf::31                248053                       # What write queue length does an incoming req see
system.mem_ctrls0.wrQLenPdf::32                247753                       # What write queue length does an incoming req see
system.mem_ctrls0.wrQLenPdf::33                   225                       # What write queue length does an incoming req see
system.mem_ctrls0.wrQLenPdf::34                    33                       # What write queue length does an incoming req see
system.mem_ctrls0.wrQLenPdf::35                    10                       # What write queue length does an incoming req see
system.mem_ctrls0.wrQLenPdf::36                     1                       # What write queue length does an incoming req see
system.mem_ctrls0.wrQLenPdf::37                     0                       # What write queue length does an incoming req see
system.mem_ctrls0.wrQLenPdf::38                     0                       # What write queue length does an incoming req see
system.mem_ctrls0.wrQLenPdf::39                     0                       # What write queue length does an incoming req see
system.mem_ctrls0.wrQLenPdf::40                     0                       # What write queue length does an incoming req see
system.mem_ctrls0.wrQLenPdf::41                     0                       # What write queue length does an incoming req see
system.mem_ctrls0.wrQLenPdf::42                     0                       # What write queue length does an incoming req see
system.mem_ctrls0.wrQLenPdf::43                     0                       # What write queue length does an incoming req see
system.mem_ctrls0.wrQLenPdf::44                     0                       # What write queue length does an incoming req see
system.mem_ctrls0.wrQLenPdf::45                     0                       # What write queue length does an incoming req see
system.mem_ctrls0.wrQLenPdf::46                     0                       # What write queue length does an incoming req see
system.mem_ctrls0.wrQLenPdf::47                     0                       # What write queue length does an incoming req see
system.mem_ctrls0.wrQLenPdf::48                     0                       # What write queue length does an incoming req see
system.mem_ctrls0.wrQLenPdf::49                     0                       # What write queue length does an incoming req see
system.mem_ctrls0.wrQLenPdf::50                     0                       # What write queue length does an incoming req see
system.mem_ctrls0.wrQLenPdf::51                     0                       # What write queue length does an incoming req see
system.mem_ctrls0.wrQLenPdf::52                     0                       # What write queue length does an incoming req see
system.mem_ctrls0.wrQLenPdf::53                     0                       # What write queue length does an incoming req see
system.mem_ctrls0.wrQLenPdf::54                     0                       # What write queue length does an incoming req see
system.mem_ctrls0.wrQLenPdf::55                     0                       # What write queue length does an incoming req see
system.mem_ctrls0.wrQLenPdf::56                     0                       # What write queue length does an incoming req see
system.mem_ctrls0.wrQLenPdf::57                     0                       # What write queue length does an incoming req see
system.mem_ctrls0.wrQLenPdf::58                     0                       # What write queue length does an incoming req see
system.mem_ctrls0.wrQLenPdf::59                     0                       # What write queue length does an incoming req see
system.mem_ctrls0.wrQLenPdf::60                     0                       # What write queue length does an incoming req see
system.mem_ctrls0.wrQLenPdf::61                     0                       # What write queue length does an incoming req see
system.mem_ctrls0.wrQLenPdf::62                     0                       # What write queue length does an incoming req see
system.mem_ctrls0.wrQLenPdf::63                     0                       # What write queue length does an incoming req see
system.mem_ctrls0.bytesPerActivate::samples      9105589                       # Bytes accessed per row activation
system.mem_ctrls0.bytesPerActivate::mean    88.424609                       # Bytes accessed per row activation
system.mem_ctrls0.bytesPerActivate::gmean    80.316339                       # Bytes accessed per row activation
system.mem_ctrls0.bytesPerActivate::stdev    48.705197                       # Bytes accessed per row activation
system.mem_ctrls0.bytesPerActivate::0-127      6659246     73.13%     73.13% # Bytes accessed per row activation
system.mem_ctrls0.bytesPerActivate::128-255      2262352     24.85%     97.98% # Bytes accessed per row activation
system.mem_ctrls0.bytesPerActivate::256-383       160788      1.77%     99.75% # Bytes accessed per row activation
system.mem_ctrls0.bytesPerActivate::384-511        17423      0.19%     99.94% # Bytes accessed per row activation
system.mem_ctrls0.bytesPerActivate::512-639         2574      0.03%     99.96% # Bytes accessed per row activation
system.mem_ctrls0.bytesPerActivate::640-767         1301      0.01%     99.98% # Bytes accessed per row activation
system.mem_ctrls0.bytesPerActivate::768-895         1392      0.02%     99.99% # Bytes accessed per row activation
system.mem_ctrls0.bytesPerActivate::896-1023          427      0.00%    100.00% # Bytes accessed per row activation
system.mem_ctrls0.bytesPerActivate::1024-1151           86      0.00%    100.00% # Bytes accessed per row activation
system.mem_ctrls0.bytesPerActivate::total      9105589                       # Bytes accessed per row activation
system.mem_ctrls0.rdPerTurnAround::samples       247588                       # Reads before turning the bus around for writes
system.mem_ctrls0.rdPerTurnAround::mean     33.115066                       # Reads before turning the bus around for writes
system.mem_ctrls0.rdPerTurnAround::stdev    56.975160                       # Reads before turning the bus around for writes
system.mem_ctrls0.rdPerTurnAround::0-1023       247582    100.00%    100.00% # Reads before turning the bus around for writes
system.mem_ctrls0.rdPerTurnAround::1024-2047            5      0.00%    100.00% # Reads before turning the bus around for writes
system.mem_ctrls0.rdPerTurnAround::27648-28671            1      0.00%    100.00% # Reads before turning the bus around for writes
system.mem_ctrls0.rdPerTurnAround::total       247588                       # Reads before turning the bus around for writes
system.mem_ctrls0.wrPerTurnAround::samples       247588                       # Writes before turning the bus around for reads
system.mem_ctrls0.wrPerTurnAround::mean     17.697510                       # Writes before turning the bus around for reads
system.mem_ctrls0.wrPerTurnAround::gmean    17.679321                       # Writes before turning the bus around for reads
system.mem_ctrls0.wrPerTurnAround::stdev     0.787115                       # Writes before turning the bus around for reads
system.mem_ctrls0.wrPerTurnAround::16           37725     15.24%     15.24% # Writes before turning the bus around for reads
system.mem_ctrls0.wrPerTurnAround::17           10647      4.30%     19.54% # Writes before turning the bus around for reads
system.mem_ctrls0.wrPerTurnAround::18          189472     76.53%     96.06% # Writes before turning the bus around for reads
system.mem_ctrls0.wrPerTurnAround::19            8435      3.41%     99.47% # Writes before turning the bus around for reads
system.mem_ctrls0.wrPerTurnAround::20            1183      0.48%     99.95% # Writes before turning the bus around for reads
system.mem_ctrls0.wrPerTurnAround::21             110      0.04%     99.99% # Writes before turning the bus around for reads
system.mem_ctrls0.wrPerTurnAround::22              10      0.00%    100.00% # Writes before turning the bus around for reads
system.mem_ctrls0.wrPerTurnAround::23               3      0.00%    100.00% # Writes before turning the bus around for reads
system.mem_ctrls0.wrPerTurnAround::24               3      0.00%    100.00% # Writes before turning the bus around for reads
system.mem_ctrls0.wrPerTurnAround::total       247588                       # Writes before turning the bus around for reads
system.mem_ctrls0.totQLat                220728306085                       # Total ticks spent queuing
system.mem_ctrls0.totMemAccLat           374458093585                       # Total ticks spent from burst creation until serviced by the DRAM
system.mem_ctrls0.totBusLat               40994610000                       # Total ticks spent in databus transfers
system.mem_ctrls0.avgQLat                    26921.63                       # Average queueing delay per DRAM burst
system.mem_ctrls0.avgBusLat                   5000.00                       # Average bus latency per DRAM burst
system.mem_ctrls0.avgMemAccLat               45671.63                       # Average memory access latency per DRAM burst
system.mem_ctrls0.avgRdBW                      142.87                       # Average DRAM read bandwidth in MiByte/s
system.mem_ctrls0.avgWrBW                       76.35                       # Average achieved write bandwidth in MiByte/s
system.mem_ctrls0.avgRdBWSys                   142.87                       # Average system read bandwidth in MiByte/s
system.mem_ctrls0.avgWrBWSys                    76.35                       # Average system write bandwidth in MiByte/s
system.mem_ctrls0.peakBW                     12800.00                       # Theoretical peak bandwidth in MiByte/s
system.mem_ctrls0.busUtil                        1.71                       # Data bus utilization in percentage
system.mem_ctrls0.busUtilRead                    1.12                       # Data bus utilization in percentage for reads
system.mem_ctrls0.busUtilWrite                   0.60                       # Data bus utilization in percentage for writes
system.mem_ctrls0.avgRdQLen                      1.03                       # Average read queue length when enqueuing
system.mem_ctrls0.avgWrQLen                     24.56                       # Average write queue length when enqueuing
system.mem_ctrls0.readRowHits                 2591813                       # Number of row buffer hits during reads
system.mem_ctrls0.writeRowHits                 883207                       # Number of row buffer hits during writes
system.mem_ctrls0.readRowHitRate                31.61                       # Row buffer hit rate for reads
system.mem_ctrls0.writeRowHitRate               20.16                       # Row buffer hit rate for writes
system.mem_ctrls0.avgGap                    291947.07                       # Average gap between requests
system.mem_ctrls0.pageHitRate                   27.62                       # Row buffer hit rate, read and write combined
system.mem_ctrls0_0.actEnergy             32490420060                       # Energy for activate commands per rank (pJ)
system.mem_ctrls0_0.preEnergy             17269052625                       # Energy for precharge commands per rank (pJ)
system.mem_ctrls0_0.readEnergy            29275099560                       # Energy for read commands per rank (pJ)
system.mem_ctrls0_0.writeEnergy           11439844020                       # Energy for write commands per rank (pJ)
system.mem_ctrls0_0.refreshEnergy        289311048000.000061                       # Energy for refresh commands per rank (pJ)
system.mem_ctrls0_0.actBackEnergy        230523681840                       # Energy for active background per rank (pJ)
system.mem_ctrls0_0.preBackEnergy          7735844640                       # Energy for precharge background per rank (pJ)
system.mem_ctrls0_0.actPowerDownEnergy   1213153283580                       # Energy for active power-down per rank (pJ)
system.mem_ctrls0_0.prePowerDownEnergy   153590522400                       # Energy for precharge power-down per rank (pJ)
system.mem_ctrls0_0.selfRefreshEnergy     26853867420                       # Energy for self refresh per rank (pJ)
system.mem_ctrls0_0.totalEnergy          2011682626095                       # Total energy per rank (pJ)
system.mem_ctrls0_0.averagePower           547.711917                       # Core power per rank (mW)
system.mem_ctrls0_0.totalIdleTime        3147104764278                       # Total Idle time Per DRAM Rank
system.mem_ctrls0_0.memoryStateTime::IDLE   5589832018                       # Time in different power states
system.mem_ctrls0_0.memoryStateTime::REF 122451180000                       # Time in different power states
system.mem_ctrls0_0.memoryStateTime::SREF  86716618567                       # Time in different power states
system.mem_ctrls0_0.memoryStateTime::PRE_PDN 399973711707                       # Time in different power states
system.mem_ctrls0_0.memoryStateTime::ACT 397738605869                       # Time in different power states
system.mem_ctrls0_0.memoryStateTime::ACT_PDN 2660414555108                       # Time in different power states
system.mem_ctrls0_1.actEnergy             32523513960                       # Energy for activate commands per rank (pJ)
system.mem_ctrls0_1.preEnergy             17286657630                       # Energy for precharge commands per rank (pJ)
system.mem_ctrls0_1.readEnergy            29265203520                       # Energy for read commands per rank (pJ)
system.mem_ctrls0_1.writeEnergy           11432583000                       # Energy for write commands per rank (pJ)
system.mem_ctrls0_1.refreshEnergy        289106987520.000061                       # Energy for refresh commands per rank (pJ)
system.mem_ctrls0_1.actBackEnergy        229717933260                       # Energy for active background per rank (pJ)
system.mem_ctrls0_1.preBackEnergy          7714823040                       # Energy for precharge background per rank (pJ)
system.mem_ctrls0_1.actPowerDownEnergy   1214597252040                       # Energy for active power-down per rank (pJ)
system.mem_ctrls0_1.prePowerDownEnergy   153175284960                       # Energy for precharge power-down per rank (pJ)
system.mem_ctrls0_1.selfRefreshEnergy     26573413515                       # Energy for self refresh per rank (pJ)
system.mem_ctrls0_1.totalEnergy          2011430969655                       # Total energy per rank (pJ)
system.mem_ctrls0_1.averagePower           547.643401                       # Core power per rank (mW)
system.mem_ctrls0_1.totalIdleTime        3148943314192                       # Total Idle time Per DRAM Rank
system.mem_ctrls0_1.memoryStateTime::IDLE   5494578506                       # Time in different power states
system.mem_ctrls0_1.memoryStateTime::REF 122362226000                       # Time in different power states
system.mem_ctrls0_1.memoryStateTime::SREF  86458920822                       # Time in different power states
system.mem_ctrls0_1.memoryStateTime::PRE_PDN 398899210718                       # Time in different power states
system.mem_ctrls0_1.memoryStateTime::ACT 396079296264                       # Time in different power states
system.mem_ctrls0_1.memoryStateTime::ACT_PDN 2663590270959                       # Time in different power states
system.mem_ctrls1.pwrStateResidencyTicks::UNDEFINED 147149872820343                       # Cumulative time (in ticks) in various power states
system.mem_ctrls1.bytes_read::cpu.inst             64                       # Number of bytes read from this memory
system.mem_ctrls1.bytes_read::cpu.data             64                       # Number of bytes read from this memory
system.mem_ctrls1.bytes_read::switch_cpus.inst        20288                       # Number of bytes read from this memory
system.mem_ctrls1.bytes_read::switch_cpus.data    440852160                       # Number of bytes read from this memory
system.mem_ctrls1.bytes_read::switch_cpus_1.inst         6656                       # Number of bytes read from this memory
system.mem_ctrls1.bytes_read::switch_cpus_1.data     83812096                       # Number of bytes read from this memory
system.mem_ctrls1.bytes_read::total         524691328                       # Number of bytes read from this memory
system.mem_ctrls1.bytes_inst_read::cpu.inst           64                       # Number of instructions bytes read from this memory
system.mem_ctrls1.bytes_inst_read::switch_cpus.inst        20288                       # Number of instructions bytes read from this memory
system.mem_ctrls1.bytes_inst_read::switch_cpus_1.inst         6656                       # Number of instructions bytes read from this memory
system.mem_ctrls1.bytes_inst_read::total        27008                       # Number of instructions bytes read from this memory
system.mem_ctrls1.bytes_written::writebacks    280437184                       # Number of bytes written to this memory
system.mem_ctrls1.bytes_written::total      280437184                       # Number of bytes written to this memory
system.mem_ctrls1.num_reads::cpu.inst               1                       # Number of read requests responded to by this memory
system.mem_ctrls1.num_reads::cpu.data               1                       # Number of read requests responded to by this memory
system.mem_ctrls1.num_reads::switch_cpus.inst          317                       # Number of read requests responded to by this memory
system.mem_ctrls1.num_reads::switch_cpus.data      6888315                       # Number of read requests responded to by this memory
system.mem_ctrls1.num_reads::switch_cpus_1.inst          104                       # Number of read requests responded to by this memory
system.mem_ctrls1.num_reads::switch_cpus_1.data      1309564                       # Number of read requests responded to by this memory
system.mem_ctrls1.num_reads::total            8198302                       # Number of read requests responded to by this memory
system.mem_ctrls1.num_writes::writebacks      4381831                       # Number of write requests responded to by this memory
system.mem_ctrls1.num_writes::total           4381831                       # Number of write requests responded to by this memory
system.mem_ctrls1.bw_read::cpu.inst                17                       # Total read bandwidth from this memory (bytes/s)
system.mem_ctrls1.bw_read::cpu.data                17                       # Total read bandwidth from this memory (bytes/s)
system.mem_ctrls1.bw_read::switch_cpus.inst         5524                       # Total read bandwidth from this memory (bytes/s)
system.mem_ctrls1.bw_read::switch_cpus.data    120028865                       # Total read bandwidth from this memory (bytes/s)
system.mem_ctrls1.bw_read::switch_cpus_1.inst         1812                       # Total read bandwidth from this memory (bytes/s)
system.mem_ctrls1.bw_read::switch_cpus_1.data     22819148                       # Total read bandwidth from this memory (bytes/s)
system.mem_ctrls1.bw_read::total            142855385                       # Total read bandwidth from this memory (bytes/s)
system.mem_ctrls1.bw_inst_read::cpu.inst           17                       # Instruction read bandwidth from this memory (bytes/s)
system.mem_ctrls1.bw_inst_read::switch_cpus.inst         5524                       # Instruction read bandwidth from this memory (bytes/s)
system.mem_ctrls1.bw_inst_read::switch_cpus_1.inst         1812                       # Instruction read bandwidth from this memory (bytes/s)
system.mem_ctrls1.bw_inst_read::total            7353                       # Instruction read bandwidth from this memory (bytes/s)
system.mem_ctrls1.bw_write::writebacks       76353390                       # Write bandwidth from this memory (bytes/s)
system.mem_ctrls1.bw_write::total            76353390                       # Write bandwidth from this memory (bytes/s)
system.mem_ctrls1.bw_total::writebacks       76353390                       # Total bandwidth to/from this memory (bytes/s)
system.mem_ctrls1.bw_total::cpu.inst               17                       # Total bandwidth to/from this memory (bytes/s)
system.mem_ctrls1.bw_total::cpu.data               17                       # Total bandwidth to/from this memory (bytes/s)
system.mem_ctrls1.bw_total::switch_cpus.inst         5524                       # Total bandwidth to/from this memory (bytes/s)
system.mem_ctrls1.bw_total::switch_cpus.data    120028865                       # Total bandwidth to/from this memory (bytes/s)
system.mem_ctrls1.bw_total::switch_cpus_1.inst         1812                       # Total bandwidth to/from this memory (bytes/s)
system.mem_ctrls1.bw_total::switch_cpus_1.data     22819148                       # Total bandwidth to/from this memory (bytes/s)
system.mem_ctrls1.bw_total::total           219208775                       # Total bandwidth to/from this memory (bytes/s)
system.mem_ctrls1.readReqs                    8198302                       # Number of read requests accepted
system.mem_ctrls1.writeReqs                   4381831                       # Number of write requests accepted
system.mem_ctrls1.readBursts                  8198302                       # Number of DRAM read bursts, including those serviced by the write queue
system.mem_ctrls1.writeBursts                 4381831                       # Number of DRAM write bursts, including those merged in the write queue
system.mem_ctrls1.bytesReadDRAM             524690944                       # Total number of bytes read from DRAM
system.mem_ctrls1.bytesReadWrQ                    384                       # Total number of bytes read from write queue
system.mem_ctrls1.bytesWritten              280436032                       # Total number of bytes written to DRAM
system.mem_ctrls1.bytesReadSys              524691328                       # Total read bytes from the system interface side
system.mem_ctrls1.bytesWrittenSys           280437184                       # Total written bytes from the system interface side
system.mem_ctrls1.servicedByWrQ                     6                       # Number of DRAM read bursts serviced by the write queue
system.mem_ctrls1.mergedWrBursts                    0                       # Number of DRAM write bursts merged with an existing one
system.mem_ctrls1.neitherReadNorWriteReqs            0                       # Number of requests that are neither read nor write
system.mem_ctrls1.perBankRdBursts::0           512312                       # Per bank write bursts
system.mem_ctrls1.perBankRdBursts::1           512692                       # Per bank write bursts
system.mem_ctrls1.perBankRdBursts::2           511762                       # Per bank write bursts
system.mem_ctrls1.perBankRdBursts::3           513939                       # Per bank write bursts
system.mem_ctrls1.perBankRdBursts::4           513109                       # Per bank write bursts
system.mem_ctrls1.perBankRdBursts::5           511950                       # Per bank write bursts
system.mem_ctrls1.perBankRdBursts::6           511715                       # Per bank write bursts
system.mem_ctrls1.perBankRdBursts::7           512442                       # Per bank write bursts
system.mem_ctrls1.perBankRdBursts::8           512834                       # Per bank write bursts
system.mem_ctrls1.perBankRdBursts::9           511376                       # Per bank write bursts
system.mem_ctrls1.perBankRdBursts::10          511188                       # Per bank write bursts
system.mem_ctrls1.perBankRdBursts::11          512570                       # Per bank write bursts
system.mem_ctrls1.perBankRdBursts::12          512667                       # Per bank write bursts
system.mem_ctrls1.perBankRdBursts::13          512374                       # Per bank write bursts
system.mem_ctrls1.perBankRdBursts::14          512401                       # Per bank write bursts
system.mem_ctrls1.perBankRdBursts::15          512965                       # Per bank write bursts
system.mem_ctrls1.perBankWrBursts::0           275380                       # Per bank write bursts
system.mem_ctrls1.perBankWrBursts::1           274107                       # Per bank write bursts
system.mem_ctrls1.perBankWrBursts::2           273289                       # Per bank write bursts
system.mem_ctrls1.perBankWrBursts::3           274152                       # Per bank write bursts
system.mem_ctrls1.perBankWrBursts::4           273956                       # Per bank write bursts
system.mem_ctrls1.perBankWrBursts::5           273850                       # Per bank write bursts
system.mem_ctrls1.perBankWrBursts::6           273711                       # Per bank write bursts
system.mem_ctrls1.perBankWrBursts::7           273087                       # Per bank write bursts
system.mem_ctrls1.perBankWrBursts::8           273036                       # Per bank write bursts
system.mem_ctrls1.perBankWrBursts::9           272689                       # Per bank write bursts
system.mem_ctrls1.perBankWrBursts::10          273877                       # Per bank write bursts
system.mem_ctrls1.perBankWrBursts::11          275287                       # Per bank write bursts
system.mem_ctrls1.perBankWrBursts::12          274173                       # Per bank write bursts
system.mem_ctrls1.perBankWrBursts::13          272951                       # Per bank write bursts
system.mem_ctrls1.perBankWrBursts::14          273317                       # Per bank write bursts
system.mem_ctrls1.perBankWrBursts::15          274951                       # Per bank write bursts
system.mem_ctrls1.numRdRetry                        0                       # Number of times read queue was full causing retry
system.mem_ctrls1.numWrRetry                        0                       # Number of times write queue was full causing retry
system.mem_ctrls1.totGap                 3672884145627                       # Total gap between requests
system.mem_ctrls1.readPktSize::0                    0                       # Read request sizes (log2)
system.mem_ctrls1.readPktSize::1                    0                       # Read request sizes (log2)
system.mem_ctrls1.readPktSize::2                    0                       # Read request sizes (log2)
system.mem_ctrls1.readPktSize::3                    0                       # Read request sizes (log2)
system.mem_ctrls1.readPktSize::4                    0                       # Read request sizes (log2)
system.mem_ctrls1.readPktSize::5                    0                       # Read request sizes (log2)
system.mem_ctrls1.readPktSize::6              8198302                       # Read request sizes (log2)
system.mem_ctrls1.writePktSize::0                   0                       # Write request sizes (log2)
system.mem_ctrls1.writePktSize::1                   0                       # Write request sizes (log2)
system.mem_ctrls1.writePktSize::2                   0                       # Write request sizes (log2)
system.mem_ctrls1.writePktSize::3                   0                       # Write request sizes (log2)
system.mem_ctrls1.writePktSize::4                   0                       # Write request sizes (log2)
system.mem_ctrls1.writePktSize::5                   0                       # Write request sizes (log2)
system.mem_ctrls1.writePktSize::6             4381831                       # Write request sizes (log2)
system.mem_ctrls1.rdQLenPdf::0                7776249                       # What read queue length does an incoming req see
system.mem_ctrls1.rdQLenPdf::1                 312603                       # What read queue length does an incoming req see
system.mem_ctrls1.rdQLenPdf::2                  96271                       # What read queue length does an incoming req see
system.mem_ctrls1.rdQLenPdf::3                  13172                       # What read queue length does an incoming req see
system.mem_ctrls1.rdQLenPdf::4                      1                       # What read queue length does an incoming req see
system.mem_ctrls1.rdQLenPdf::5                      0                       # What read queue length does an incoming req see
system.mem_ctrls1.rdQLenPdf::6                      0                       # What read queue length does an incoming req see
system.mem_ctrls1.rdQLenPdf::7                      0                       # What read queue length does an incoming req see
system.mem_ctrls1.rdQLenPdf::8                      0                       # What read queue length does an incoming req see
system.mem_ctrls1.rdQLenPdf::9                      0                       # What read queue length does an incoming req see
system.mem_ctrls1.rdQLenPdf::10                     0                       # What read queue length does an incoming req see
system.mem_ctrls1.rdQLenPdf::11                     0                       # What read queue length does an incoming req see
system.mem_ctrls1.rdQLenPdf::12                     0                       # What read queue length does an incoming req see
system.mem_ctrls1.rdQLenPdf::13                     0                       # What read queue length does an incoming req see
system.mem_ctrls1.rdQLenPdf::14                     0                       # What read queue length does an incoming req see
system.mem_ctrls1.rdQLenPdf::15                     0                       # What read queue length does an incoming req see
system.mem_ctrls1.rdQLenPdf::16                     0                       # What read queue length does an incoming req see
system.mem_ctrls1.rdQLenPdf::17                     0                       # What read queue length does an incoming req see
system.mem_ctrls1.rdQLenPdf::18                     0                       # What read queue length does an incoming req see
system.mem_ctrls1.rdQLenPdf::19                     0                       # What read queue length does an incoming req see
system.mem_ctrls1.rdQLenPdf::20                     0                       # What read queue length does an incoming req see
system.mem_ctrls1.rdQLenPdf::21                     0                       # What read queue length does an incoming req see
system.mem_ctrls1.rdQLenPdf::22                     0                       # What read queue length does an incoming req see
system.mem_ctrls1.rdQLenPdf::23                     0                       # What read queue length does an incoming req see
system.mem_ctrls1.rdQLenPdf::24                     0                       # What read queue length does an incoming req see
system.mem_ctrls1.rdQLenPdf::25                     0                       # What read queue length does an incoming req see
system.mem_ctrls1.rdQLenPdf::26                     0                       # What read queue length does an incoming req see
system.mem_ctrls1.rdQLenPdf::27                     0                       # What read queue length does an incoming req see
system.mem_ctrls1.rdQLenPdf::28                     0                       # What read queue length does an incoming req see
system.mem_ctrls1.rdQLenPdf::29                     0                       # What read queue length does an incoming req see
system.mem_ctrls1.rdQLenPdf::30                     0                       # What read queue length does an incoming req see
system.mem_ctrls1.rdQLenPdf::31                     0                       # What read queue length does an incoming req see
system.mem_ctrls1.wrQLenPdf::0                      2                       # What write queue length does an incoming req see
system.mem_ctrls1.wrQLenPdf::1                      2                       # What write queue length does an incoming req see
system.mem_ctrls1.wrQLenPdf::2                      2                       # What write queue length does an incoming req see
system.mem_ctrls1.wrQLenPdf::3                      2                       # What write queue length does an incoming req see
system.mem_ctrls1.wrQLenPdf::4                      2                       # What write queue length does an incoming req see
system.mem_ctrls1.wrQLenPdf::5                      2                       # What write queue length does an incoming req see
system.mem_ctrls1.wrQLenPdf::6                      2                       # What write queue length does an incoming req see
system.mem_ctrls1.wrQLenPdf::7                      2                       # What write queue length does an incoming req see
system.mem_ctrls1.wrQLenPdf::8                      2                       # What write queue length does an incoming req see
system.mem_ctrls1.wrQLenPdf::9                      2                       # What write queue length does an incoming req see
system.mem_ctrls1.wrQLenPdf::10                     2                       # What write queue length does an incoming req see
system.mem_ctrls1.wrQLenPdf::11                     2                       # What write queue length does an incoming req see
system.mem_ctrls1.wrQLenPdf::12                     2                       # What write queue length does an incoming req see
system.mem_ctrls1.wrQLenPdf::13                     2                       # What write queue length does an incoming req see
system.mem_ctrls1.wrQLenPdf::14                     2                       # What write queue length does an incoming req see
system.mem_ctrls1.wrQLenPdf::15                198375                       # What write queue length does an incoming req see
system.mem_ctrls1.wrQLenPdf::16                209487                       # What write queue length does an incoming req see
system.mem_ctrls1.wrQLenPdf::17                244096                       # What write queue length does an incoming req see
system.mem_ctrls1.wrQLenPdf::18                247611                       # What write queue length does an incoming req see
system.mem_ctrls1.wrQLenPdf::19                248126                       # What write queue length does an incoming req see
system.mem_ctrls1.wrQLenPdf::20                248260                       # What write queue length does an incoming req see
system.mem_ctrls1.wrQLenPdf::21                248326                       # What write queue length does an incoming req see
system.mem_ctrls1.wrQLenPdf::22                248495                       # What write queue length does an incoming req see
system.mem_ctrls1.wrQLenPdf::23                248859                       # What write queue length does an incoming req see
system.mem_ctrls1.wrQLenPdf::24                248792                       # What write queue length does an incoming req see
system.mem_ctrls1.wrQLenPdf::25                248641                       # What write queue length does an incoming req see
system.mem_ctrls1.wrQLenPdf::26                248706                       # What write queue length does an incoming req see
system.mem_ctrls1.wrQLenPdf::27                248790                       # What write queue length does an incoming req see
system.mem_ctrls1.wrQLenPdf::28                248748                       # What write queue length does an incoming req see
system.mem_ctrls1.wrQLenPdf::29                249168                       # What write queue length does an incoming req see
system.mem_ctrls1.wrQLenPdf::30                251342                       # What write queue length does an incoming req see
system.mem_ctrls1.wrQLenPdf::31                248020                       # What write queue length does an incoming req see
system.mem_ctrls1.wrQLenPdf::32                247733                       # What write queue length does an incoming req see
system.mem_ctrls1.wrQLenPdf::33                   190                       # What write queue length does an incoming req see
system.mem_ctrls1.wrQLenPdf::34                    32                       # What write queue length does an incoming req see
system.mem_ctrls1.wrQLenPdf::35                     3                       # What write queue length does an incoming req see
system.mem_ctrls1.wrQLenPdf::36                     1                       # What write queue length does an incoming req see
system.mem_ctrls1.wrQLenPdf::37                     0                       # What write queue length does an incoming req see
system.mem_ctrls1.wrQLenPdf::38                     0                       # What write queue length does an incoming req see
system.mem_ctrls1.wrQLenPdf::39                     0                       # What write queue length does an incoming req see
system.mem_ctrls1.wrQLenPdf::40                     0                       # What write queue length does an incoming req see
system.mem_ctrls1.wrQLenPdf::41                     0                       # What write queue length does an incoming req see
system.mem_ctrls1.wrQLenPdf::42                     0                       # What write queue length does an incoming req see
system.mem_ctrls1.wrQLenPdf::43                     0                       # What write queue length does an incoming req see
system.mem_ctrls1.wrQLenPdf::44                     0                       # What write queue length does an incoming req see
system.mem_ctrls1.wrQLenPdf::45                     0                       # What write queue length does an incoming req see
system.mem_ctrls1.wrQLenPdf::46                     0                       # What write queue length does an incoming req see
system.mem_ctrls1.wrQLenPdf::47                     0                       # What write queue length does an incoming req see
system.mem_ctrls1.wrQLenPdf::48                     0                       # What write queue length does an incoming req see
system.mem_ctrls1.wrQLenPdf::49                     0                       # What write queue length does an incoming req see
system.mem_ctrls1.wrQLenPdf::50                     0                       # What write queue length does an incoming req see
system.mem_ctrls1.wrQLenPdf::51                     0                       # What write queue length does an incoming req see
system.mem_ctrls1.wrQLenPdf::52                     0                       # What write queue length does an incoming req see
system.mem_ctrls1.wrQLenPdf::53                     0                       # What write queue length does an incoming req see
system.mem_ctrls1.wrQLenPdf::54                     0                       # What write queue length does an incoming req see
system.mem_ctrls1.wrQLenPdf::55                     0                       # What write queue length does an incoming req see
system.mem_ctrls1.wrQLenPdf::56                     0                       # What write queue length does an incoming req see
system.mem_ctrls1.wrQLenPdf::57                     0                       # What write queue length does an incoming req see
system.mem_ctrls1.wrQLenPdf::58                     0                       # What write queue length does an incoming req see
system.mem_ctrls1.wrQLenPdf::59                     0                       # What write queue length does an incoming req see
system.mem_ctrls1.wrQLenPdf::60                     0                       # What write queue length does an incoming req see
system.mem_ctrls1.wrQLenPdf::61                     0                       # What write queue length does an incoming req see
system.mem_ctrls1.wrQLenPdf::62                     0                       # What write queue length does an incoming req see
system.mem_ctrls1.wrQLenPdf::63                     0                       # What write queue length does an incoming req see
system.mem_ctrls1.bytesPerActivate::samples      9105980                       # Bytes accessed per row activation
system.mem_ctrls1.bytesPerActivate::mean    88.417354                       # Bytes accessed per row activation
system.mem_ctrls1.bytesPerActivate::gmean    80.308124                       # Bytes accessed per row activation
system.mem_ctrls1.bytesPerActivate::stdev    48.716921                       # Bytes accessed per row activation
system.mem_ctrls1.bytesPerActivate::0-127      6660740     73.15%     73.15% # Bytes accessed per row activation
system.mem_ctrls1.bytesPerActivate::128-255      2260453     24.82%     97.97% # Bytes accessed per row activation
system.mem_ctrls1.bytesPerActivate::256-383       161404      1.77%     99.74% # Bytes accessed per row activation
system.mem_ctrls1.bytesPerActivate::384-511        17581      0.19%     99.94% # Bytes accessed per row activation
system.mem_ctrls1.bytesPerActivate::512-639         2636      0.03%     99.97% # Bytes accessed per row activation
system.mem_ctrls1.bytesPerActivate::640-767         1227      0.01%     99.98% # Bytes accessed per row activation
system.mem_ctrls1.bytesPerActivate::768-895         1451      0.02%     99.99% # Bytes accessed per row activation
system.mem_ctrls1.bytesPerActivate::896-1023          402      0.00%    100.00% # Bytes accessed per row activation
system.mem_ctrls1.bytesPerActivate::1024-1151           86      0.00%    100.00% # Bytes accessed per row activation
system.mem_ctrls1.bytesPerActivate::total      9105980                       # Bytes accessed per row activation
system.mem_ctrls1.rdPerTurnAround::samples       247572                       # Reads before turning the bus around for writes
system.mem_ctrls1.rdPerTurnAround::mean     33.114787                       # Reads before turning the bus around for writes
system.mem_ctrls1.rdPerTurnAround::stdev    56.870614                       # Reads before turning the bus around for writes
system.mem_ctrls1.rdPerTurnAround::0-1023       247564    100.00%    100.00% # Reads before turning the bus around for writes
system.mem_ctrls1.rdPerTurnAround::1024-2047            7      0.00%    100.00% # Reads before turning the bus around for writes
system.mem_ctrls1.rdPerTurnAround::27648-28671            1      0.00%    100.00% # Reads before turning the bus around for writes
system.mem_ctrls1.rdPerTurnAround::total       247572                       # Reads before turning the bus around for writes
system.mem_ctrls1.wrPerTurnAround::samples       247572                       # Writes before turning the bus around for reads
system.mem_ctrls1.wrPerTurnAround::mean     17.699146                       # Writes before turning the bus around for reads
system.mem_ctrls1.wrPerTurnAround::gmean    17.681069                       # Writes before turning the bus around for reads
system.mem_ctrls1.wrPerTurnAround::stdev     0.784617                       # Writes before turning the bus around for reads
system.mem_ctrls1.wrPerTurnAround::16           37504     15.15%     15.15% # Writes before turning the bus around for reads
system.mem_ctrls1.wrPerTurnAround::17           10576      4.27%     19.42% # Writes before turning the bus around for reads
system.mem_ctrls1.wrPerTurnAround::18          189765     76.65%     96.07% # Writes before turning the bus around for reads
system.mem_ctrls1.wrPerTurnAround::19            8494      3.43%     99.50% # Writes before turning the bus around for reads
system.mem_ctrls1.wrPerTurnAround::20            1123      0.45%     99.96% # Writes before turning the bus around for reads
system.mem_ctrls1.wrPerTurnAround::21              90      0.04%     99.99% # Writes before turning the bus around for reads
system.mem_ctrls1.wrPerTurnAround::22              13      0.01%    100.00% # Writes before turning the bus around for reads
system.mem_ctrls1.wrPerTurnAround::23               5      0.00%    100.00% # Writes before turning the bus around for reads
system.mem_ctrls1.wrPerTurnAround::25               2      0.00%    100.00% # Writes before turning the bus around for reads
system.mem_ctrls1.wrPerTurnAround::total       247572                       # Writes before turning the bus around for reads
system.mem_ctrls1.totQLat                221046645561                       # Total ticks spent queuing
system.mem_ctrls1.totMemAccLat           374764695561                       # Total ticks spent from burst creation until serviced by the DRAM
system.mem_ctrls1.totBusLat               40991480000                       # Total ticks spent in databus transfers
system.mem_ctrls1.avgQLat                    26962.51                       # Average queueing delay per DRAM burst
system.mem_ctrls1.avgBusLat                   5000.00                       # Average bus latency per DRAM burst
system.mem_ctrls1.avgMemAccLat               45712.51                       # Average memory access latency per DRAM burst
system.mem_ctrls1.avgRdBW                      142.86                       # Average DRAM read bandwidth in MiByte/s
system.mem_ctrls1.avgWrBW                       76.35                       # Average achieved write bandwidth in MiByte/s
system.mem_ctrls1.avgRdBWSys                   142.86                       # Average system read bandwidth in MiByte/s
system.mem_ctrls1.avgWrBWSys                    76.35                       # Average system write bandwidth in MiByte/s
system.mem_ctrls1.peakBW                     12800.00                       # Theoretical peak bandwidth in MiByte/s
system.mem_ctrls1.busUtil                        1.71                       # Data bus utilization in percentage
system.mem_ctrls1.busUtilRead                    1.12                       # Data bus utilization in percentage for reads
system.mem_ctrls1.busUtilWrite                   0.60                       # Data bus utilization in percentage for writes
system.mem_ctrls1.avgRdQLen                      1.03                       # Average read queue length when enqueuing
system.mem_ctrls1.avgWrQLen                     24.58                       # Average write queue length when enqueuing
system.mem_ctrls1.readRowHits                 2590835                       # Number of row buffer hits during reads
system.mem_ctrls1.writeRowHits                 883290                       # Number of row buffer hits during writes
system.mem_ctrls1.readRowHitRate                31.60                       # Row buffer hit rate for reads
system.mem_ctrls1.writeRowHitRate               20.16                       # Row buffer hit rate for writes
system.mem_ctrls1.avgGap                    291959.09                       # Average gap between requests
system.mem_ctrls1.pageHitRate                   27.62                       # Row buffer hit rate, read and write combined
system.mem_ctrls1_0.actEnergy             32501094360                       # Energy for activate commands per rank (pJ)
system.mem_ctrls1_0.preEnergy             17274729945                       # Energy for precharge commands per rank (pJ)
system.mem_ctrls1_0.readEnergy            29273435940                       # Energy for read commands per rank (pJ)
system.mem_ctrls1_0.writeEnergy           11439797040                       # Energy for write commands per rank (pJ)
system.mem_ctrls1_0.refreshEnergy        289213934880.000061                       # Energy for refresh commands per rank (pJ)
system.mem_ctrls1_0.actBackEnergy        230656933590                       # Energy for active background per rank (pJ)
system.mem_ctrls1_0.preBackEnergy          7738860480                       # Energy for precharge background per rank (pJ)
system.mem_ctrls1_0.actPowerDownEnergy   1212341827020                       # Energy for active power-down per rank (pJ)
system.mem_ctrls1_0.prePowerDownEnergy   154086296160                       # Energy for precharge power-down per rank (pJ)
system.mem_ctrls1_0.selfRefreshEnergy     26818497225                       # Energy for self refresh per rank (pJ)
system.mem_ctrls1_0.totalEnergy          2011381852860                       # Total energy per rank (pJ)
system.mem_ctrls1_0.averagePower           547.630027                       # Core power per rank (mW)
system.mem_ctrls1_0.totalIdleTime        3146825739784                       # Total Idle time Per DRAM Rank
system.mem_ctrls1_0.memoryStateTime::IDLE   5593126123                       # Time in different power states
system.mem_ctrls1_0.memoryStateTime::REF 122409182000                       # Time in different power states
system.mem_ctrls1_0.memoryStateTime::SREF  86912871606                       # Time in different power states
system.mem_ctrls1_0.memoryStateTime::PRE_PDN 401261930812                       # Time in different power states
system.mem_ctrls1_0.memoryStateTime::ACT 398056406687                       # Time in different power states
system.mem_ctrls1_0.memoryStateTime::ACT_PDN 2658650986041                       # Time in different power states
system.mem_ctrls1_1.actEnergy             32515631400                       # Energy for activate commands per rank (pJ)
system.mem_ctrls1_1.preEnergy             17282464155                       # Energy for precharge commands per rank (pJ)
system.mem_ctrls1_1.readEnergy            29262397500                       # Energy for read commands per rank (pJ)
system.mem_ctrls1_1.writeEnergy           11433266820                       # Energy for write commands per rank (pJ)
system.mem_ctrls1_1.refreshEnergy        289055357760.000061                       # Energy for refresh commands per rank (pJ)
system.mem_ctrls1_1.actBackEnergy        229785439500                       # Energy for active background per rank (pJ)
system.mem_ctrls1_1.preBackEnergy          7712293440                       # Energy for precharge background per rank (pJ)
system.mem_ctrls1_1.actPowerDownEnergy   1214617856970                       # Energy for active power-down per rank (pJ)
system.mem_ctrls1_1.prePowerDownEnergy   153134076000                       # Energy for precharge power-down per rank (pJ)
system.mem_ctrls1_1.selfRefreshEnergy     26498195805                       # Energy for self refresh per rank (pJ)
system.mem_ctrls1_1.totalEnergy          2011333839660                       # Total energy per rank (pJ)
system.mem_ctrls1_1.averagePower           547.616953                       # Core power per rank (mW)
system.mem_ctrls1_1.totalIdleTime        3148817258695                       # Total Idle time Per DRAM Rank
system.mem_ctrls1_1.memoryStateTime::IDLE   5490444421                       # Time in different power states
system.mem_ctrls1_1.memoryStateTime::REF 122340296000                       # Time in different power states
system.mem_ctrls1_1.memoryStateTime::SREF  86380654704                       # Time in different power states
system.mem_ctrls1_1.memoryStateTime::PRE_PDN 398797782712                       # Time in different power states
system.mem_ctrls1_1.memoryStateTime::ACT 396236504153                       # Time in different power states
system.mem_ctrls1_1.memoryStateTime::ACT_PDN 2663638821279                       # Time in different power states
system.pwrStateResidencyTicks::UNDEFINED 147149872820343                       # Cumulative time (in ticks) in various power states
system.cpu.branchPred.lookups                       0                       # Number of BP lookups
system.cpu.branchPred.condPredicted                 0                       # Number of conditional branches predicted
system.cpu.branchPred.condIncorrect                 0                       # Number of conditional branches incorrect
system.cpu.branchPred.BTBLookups                    0                       # Number of BTB lookups
system.cpu.branchPred.BTBHits                       0                       # Number of BTB hits
system.cpu.branchPred.BTBCorrect                    0                       # Number of correct BTB predictions (this stat may not work properly.
system.cpu.branchPred.BTBHitPct                   nan                       # BTB Hit Percentage
system.cpu.branchPred.usedRAS                       0                       # Number of times the RAS was used to get a target.
system.cpu.branchPred.RASInCorrect                  0                       # Number of incorrect RAS predictions.
system.cpu.branchPred.indirectLookups               0                       # Number of indirect predictor lookups.
system.cpu.branchPred.indirectHits                  0                       # Number of indirect target hits.
system.cpu.branchPred.indirectMisses                0                       # Number of indirect misses.
system.cpu.branchPredindirectMispredicted            0                       # Number of mispredicted indirect branches.
system.cpu_voltage_domain.voltage                   1                       # Voltage in Volts
system.cpu_clk_domain.clock                       333                       # Clock period in ticks
system.cpu.dtb.fetch_hits                           0                       # ITB hits
system.cpu.dtb.fetch_misses                         0                       # ITB misses
system.cpu.dtb.fetch_acv                            0                       # ITB acv
system.cpu.dtb.fetch_accesses                       0                       # ITB accesses
system.cpu.dtb.read_hits                           13                       # DTB read hits
system.cpu.dtb.read_misses                          0                       # DTB read misses
system.cpu.dtb.read_acv                             0                       # DTB read access violations
system.cpu.dtb.read_accesses                       13                       # DTB read accesses
system.cpu.dtb.write_hits                           0                       # DTB write hits
system.cpu.dtb.write_misses                         0                       # DTB write misses
system.cpu.dtb.write_acv                            0                       # DTB write access violations
system.cpu.dtb.write_accesses                       0                       # DTB write accesses
system.cpu.dtb.data_hits                           13                       # DTB hits
system.cpu.dtb.data_misses                          0                       # DTB misses
system.cpu.dtb.data_acv                             0                       # DTB access violations
system.cpu.dtb.data_accesses                       13                       # DTB accesses
system.cpu.itb.fetch_hits                           4                       # ITB hits
system.cpu.itb.fetch_misses                         0                       # ITB misses
system.cpu.itb.fetch_acv                            0                       # ITB acv
system.cpu.itb.fetch_accesses                       4                       # ITB accesses
system.cpu.itb.read_hits                            0                       # DTB read hits
system.cpu.itb.read_misses                          0                       # DTB read misses
system.cpu.itb.read_acv                             0                       # DTB read access violations
system.cpu.itb.read_accesses                        0                       # DTB read accesses
system.cpu.itb.write_hits                           0                       # DTB write hits
system.cpu.itb.write_misses                         0                       # DTB write misses
system.cpu.itb.write_acv                            0                       # DTB write access violations
system.cpu.itb.write_accesses                       0                       # DTB write accesses
system.cpu.itb.data_hits                            0                       # DTB hits
system.cpu.itb.data_misses                          0                       # DTB misses
system.cpu.itb.data_acv                             0                       # DTB access violations
system.cpu.itb.data_accesses                        0                       # DTB accesses
system.cpu.workload.num_syscalls                    0                       # Number of system calls
system.cpu.pwrStateResidencyTicks::ON    3672884503269                       # Cumulative time (in ticks) in various power states
system.cpu.numCycles                              985                       # number of cpu cycles simulated
system.cpu.numWorkItemsStarted                      0                       # number of work items this cpu started
system.cpu.numWorkItemsCompleted                    0                       # number of work items this cpu completed
system.cpu.fetch.icacheStallCycles                 51                       # Number of cycles fetch is stalled on an Icache miss
system.cpu.fetch.Insts                             23                       # Number of instructions fetch has processed
system.cpu.fetch.Cycles                             3                       # Number of cycles fetch has run and was not squashing or blocked
system.cpu.fetch.SquashCycles                       3                       # Number of cycles fetch has spent squashing
system.cpu.fetch.PendingDrainCycles                 7                       # Number of cycles fetch has spent waiting on pipes to drain
system.cpu.fetch.CacheLines                         4                       # Number of cache lines fetched
system.cpu.fetch.IcacheSquashes                     2                       # Number of outstanding Icache misses that were squashed
system.cpu.fetch.rateDist::samples                 62                       # Number of instructions fetched each cycle (Total)
system.cpu.fetch.rateDist::mean              0.370968                       # Number of instructions fetched each cycle (Total)
system.cpu.fetch.rateDist::stdev             1.661856                       # Number of instructions fetched each cycle (Total)
system.cpu.fetch.rateDist::underflows               0      0.00%      0.00% # Number of instructions fetched each cycle (Total)
system.cpu.fetch.rateDist::0                       59     95.16%     95.16% # Number of instructions fetched each cycle (Total)
system.cpu.fetch.rateDist::1                        0      0.00%     95.16% # Number of instructions fetched each cycle (Total)
system.cpu.fetch.rateDist::2                        0      0.00%     95.16% # Number of instructions fetched each cycle (Total)
[...]
system.switch_cpus_1.iq.fu_busy_rate         0.055258                       # FU busy rate (busy events/executed inst)
system.switch_cpus_1.iq.int_inst_queue_reads    815486124                       # Number of integer instruction queue reads
system.switch_cpus_1.iq.int_inst_queue_writes     79841698                       # Number of integer instruction queue writes
system.switch_cpus_1.iq.int_inst_queue_wakeup_accesses     72918864                       # Number of integer instruction queue wakeup accesses
system.switch_cpus_1.iq.fp_inst_queue_reads    313068229                       # Number of floating instruction queue reads
system.switch_cpus_1.iq.fp_inst_queue_writes    167481886                       # Number of floating instruction queue writes
system.switch_cpus_1.iq.fp_inst_queue_wakeup_accesses    142533649                       # Number of floating instruction queue wakeup accesses
system.switch_cpus_1.iq.int_alu_accesses     81294800                       # Number of integer alu accesses
system.switch_cpus_1.iq.fp_alu_accesses     160051198                       # Number of floating point alu accesses
system.switch_cpus_1.iew.lsq.thread0.forwLoads       563590                       # Number of loads that had data forwarded from stores
system.switch_cpus_1.iew.lsq.thread0.invAddrLoads            0                       # Number of loads ignored due to an invalid address
system.switch_cpus_1.iew.lsq.thread0.squashedLoads      9699044                       # Number of loads squashed
system.switch_cpus_1.iew.lsq.thread0.ignoredResponses           32                       # Number of memory responses ignored because the instruction is squashed
system.switch_cpus_1.iew.lsq.thread0.memOrderViolation          539                       # Number of memory ordering violations
system.switch_cpus_1.iew.lsq.thread0.squashedStores      1086743                       # Number of stores squashed
system.switch_cpus_1.iew.lsq.thread0.invAddrSwpfs            0                       # Number of software prefetches ignored due to an invalid address
system.switch_cpus_1.iew.lsq.thread0.blockedLoads            0                       # Number of blocked loads due to partial load-store forwarding
system.switch_cpus_1.iew.lsq.thread0.rescheduledLoads            0                       # Number of loads that were rescheduled
system.switch_cpus_1.iew.lsq.thread0.cacheBlocked     11859476                       # Number of times an access to memory failed due to the cache being blocked
system.switch_cpus_1.iew.iewIdleCycles              0                       # Number of cycles IEW is idle
system.switch_cpus_1.iew.iewSquashCycles       306910                       # Number of cycles IEW is squashing
system.switch_cpus_1.iew.iewBlockCycles      17338984                       # Number of cycles IEW is blocking
system.switch_cpus_1.iew.iewUnblockCycles    203313043                       # Number of cycles IEW is unblocking
system.switch_cpus_1.iew.iewDispatchedInsts    223847602                       # Number of instructions dispatched to IQ
system.switch_cpus_1.iew.iewDispSquashedInsts         1854                       # Number of squashed instructions skipped by dispatch
system.switch_cpus_1.iew.iewDispLoadInsts     93114652                       # Number of dispatched load instructions
system.switch_cpus_1.iew.iewDispStoreInsts     11679190                       # Number of dispatched store instructions
system.switch_cpus_1.iew.iewDispNonSpecInsts            0                       # Number of dispatched non-speculative instructions
system.switch_cpus_1.iew.iewIQFullEvents        22335                       # Number of times the IQ has become full, causing a stall
system.switch_cpus_1.iew.iewLSQFullEvents    203267499                       # Number of times the LSQ has become full, causing a stall
system.switch_cpus_1.iew.memOrderViolationEvents          539                       # Number of memory order violations
system.switch_cpus_1.iew.predictedTakenIncorrect         3860                       # Number of branches that were predicted taken incorrectly
system.switch_cpus_1.iew.predictedNotTakenIncorrect          455                       # Number of branches that were predicted not taken incorrectly
system.switch_cpus_1.iew.branchMispredicts         4315                       # Number of branch mispredicts detected at execute
system.switch_cpus_1.iew.iewExecutedInsts    228640096                       # Number of executed instructions
system.switch_cpus_1.iew.iewExecLoadInsts    104234844                       # Number of load instructions executed
system.switch_cpus_1.iew.iewExecSquashedInsts        67963                       # Number of squashed instructions skipped in execute
system.switch_cpus_1.iew.exec_swp                   0                       # number of swp insts executed
system.switch_cpus_1.iew.exec_nop              186046                       # number of nop insts executed
system.switch_cpus_1.iew.exec_refs          114955497                       # number of memory reference insts executed
system.switch_cpus_1.iew.exec_branches        1994187                       # Number of branches executed
system.switch_cpus_1.iew.exec_stores         10720653                       # Number of stores executed
system.switch_cpus_1.iew.exec_rate           0.347354                       # Inst execution rate
system.switch_cpus_1.iew.wb_sent            216541150                       # cumulative count of insts sent to commit
system.switch_cpus_1.iew.wb_count           215452513                       # cumulative count of insts written-back
system.switch_cpus_1.iew.wb_producers       142975470                       # num instructions producing a value
system.switch_cpus_1.iew.wb_consumers       149859605                       # num instructions consuming a value
system.switch_cpus_1.iew.wb_rate             0.327319                       # insts written-back per cycle
system.switch_cpus_1.iew.wb_fanout           0.954063                       # average fanout of values written-back
system.switch_cpus_1.commit.commitSquashedInsts     22578007                       # The number of squashed insts skipped by commit
system.switch_cpus_1.commit.branchMispredicts         4262                       # The number of times a branch was mispredicted
system.switch_cpus_1.commit.committed_per_cycle::samples    655199745                       # Number of insts commited each cycle
system.switch_cpus_1.commit.committed_per_cycle::mean     0.305534                       # Number of insts commited each cycle
system.switch_cpus_1.commit.committed_per_cycle::stdev     1.394257                       # Number of insts commited each cycle
system.switch_cpus_1.commit.committed_per_cycle::underflows            0      0.00%      0.00% # Number of insts commited each cycle
system.switch_cpus_1.commit.committed_per_cycle::0    612030379     93.41%     93.41% # Number of insts commited each cycle
system.switch_cpus_1.commit.committed_per_cycle::1     12537166      1.91%     95.32% # Number of insts commited each cycle
system.switch_cpus_1.commit.committed_per_cycle::2      4329952      0.66%     95.99% # Number of insts commited each cycle
system.switch_cpus_1.commit.committed_per_cycle::3      2636094      0.40%     96.39% # Number of insts commited each cycle
system.switch_cpus_1.commit.committed_per_cycle::4      2274695      0.35%     96.74% # Number of insts commited each cycle
system.switch_cpus_1.commit.committed_per_cycle::5      1619049      0.25%     96.98% # Number of insts commited each cycle
system.switch_cpus_1.commit.committed_per_cycle::6      1674936      0.26%     97.24% # Number of insts commited each cycle
system.switch_cpus_1.commit.committed_per_cycle::7       943270      0.14%     97.38% # Number of insts commited each cycle
system.switch_cpus_1.commit.committed_per_cycle::8     17154204      2.62%    100.00% # Number of insts commited each cycle
system.switch_cpus_1.commit.committed_per_cycle::overflows            0      0.00%    100.00% # Number of insts commited each cycle
system.switch_cpus_1.commit.committed_per_cycle::min_value            0                       # Number of insts commited each cycle
system.switch_cpus_1.commit.committed_per_cycle::max_value            8                       # Number of insts commited each cycle
system.switch_cpus_1.commit.committed_per_cycle::total    655199745                       # Number of insts commited each cycle
system.switch_cpus_1.commit.committedInsts    200185515                       # Number of instructions committed
system.switch_cpus_1.commit.committedOps    200185515                       # Number of ops (including micro ops) committed
system.switch_cpus_1.commit.swp_count               0                       # Number of s/w prefetches committed
system.switch_cpus_1.commit.refs             94008030                       # Number of memory references committed
system.switch_cpus_1.commit.loads            83415586                       # Number of loads committed
system.switch_cpus_1.commit.membars                 0                       # Number of memory barriers committed
system.switch_cpus_1.commit.branches          1780705                       # Number of branches committed
system.switch_cpus_1.commit.fp_insts        133556284                       # Number of committed floating point instructions.
system.switch_cpus_1.commit.int_insts       133992906                       # Number of committed integer instructions.
system.switch_cpus_1.commit.function_calls            0                       # Number of function calls committed.
system.switch_cpus_1.commit.op_class_0::No_OpClass       185513      0.09%      0.09% # Class of committed instruction
system.switch_cpus_1.commit.op_class_0::IntAlu     39964775     19.96%     20.06% # Class of committed instruction
system.switch_cpus_1.commit.op_class_0::IntMult        96303      0.05%     20.10% # Class of committed instruction
system.switch_cpus_1.commit.op_class_0::IntDiv            0      0.00%     20.10% # Class of committed instruction
system.switch_cpus_1.commit.op_class_0::FloatAdd     26372358     13.17%     33.28% # Class of committed instruction
system.switch_cpus_1.commit.op_class_0::FloatCmp            0      0.00%     33.28% # Class of committed instruction
system.switch_cpus_1.commit.op_class_0::FloatCvt            0      0.00%     33.28% # Class of committed instruction
system.switch_cpus_1.commit.op_class_0::FloatMult     39558536     19.76%     53.04% # Class of committed instruction
system.switch_cpus_1.commit.op_class_0::FloatMultAcc            0      0.00%     53.04% # Class of committed instruction
system.switch_cpus_1.commit.op_class_0::FloatDiv            0      0.00%     53.04% # Class of committed instruction
system.switch_cpus_1.commit.op_class_0::FloatMisc            0      0.00%     53.04% # Class of committed instruction
system.switch_cpus_1.commit.op_class_0::FloatSqrt            0      0.00%     53.04% # Class of committed instruction
system.switch_cpus_1.commit.op_class_0::SimdAdd            0      0.00%     53.04% # Class of committed instruction
system.switch_cpus_1.commit.op_class_0::SimdAddAcc            0      0.00%     53.04% # Class of committed instruction
system.switch_cpus_1.commit.op_class_0::SimdAlu            0      0.00%     53.04% # Class of committed instruction
system.switch_cpus_1.commit.op_class_0::SimdCmp            0      0.00%     53.04% # Class of committed instruction
system.switch_cpus_1.commit.op_class_0::SimdCvt            0      0.00%     53.04% # Class of committed instruction
system.switch_cpus_1.commit.op_class_0::SimdMisc            0      0.00%     53.04% # Class of committed instruction
system.switch_cpus_1.commit.op_class_0::SimdMult            0      0.00%     53.04% # Class of committed instruction
system.switch_cpus_1.commit.op_class_0::SimdMultAcc            0      0.00%     53.04% # Class of committed instruction
system.switch_cpus_1.commit.op_class_0::SimdShift            0      0.00%     53.04% # Class of committed instruction
system.switch_cpus_1.commit.op_class_0::SimdShiftAcc            0      0.00%     53.04% # Class of committed instruction
system.switch_cpus_1.commit.op_class_0::SimdSqrt            0      0.00%     53.04% # Class of committed instruction
system.switch_cpus_1.commit.op_class_0::SimdFloatAdd            0      0.00%     53.04% # Class of committed instruction
system.switch_cpus_1.commit.op_class_0::SimdFloatAlu            0      0.00%     53.04% # Class of committed instruction
system.switch_cpus_1.commit.op_class_0::SimdFloatCmp            0      0.00%     53.04% # Class of committed instruction
system.switch_cpus_1.commit.op_class_0::SimdFloatCvt            0      0.00%     53.04% # Class of committed instruction
system.switch_cpus_1.commit.op_class_0::SimdFloatDiv            0      0.00%     53.04% # Class of committed instruction
system.switch_cpus_1.commit.op_class_0::SimdFloatMisc            0      0.00%     53.04% # Class of committed instruction
system.switch_cpus_1.commit.op_class_0::SimdFloatMult            0      0.00%     53.04% # Class of committed instruction
system.switch_cpus_1.commit.op_class_0::SimdFloatMultAcc            0      0.00%     53.04% # Class of committed instruction
system.switch_cpus_1.commit.op_class_0::SimdFloatSqrt            0      0.00%     53.04% # Class of committed instruction
system.switch_cpus_1.commit.op_class_0::MemRead     24580982     12.28%     65.32% # Class of committed instruction
system.switch_cpus_1.commit.op_class_0::MemWrite      1801658      0.90%     66.22% # Class of committed instruction
system.switch_cpus_1.commit.op_class_0::FloatMemRead     58834604     29.39%     95.61% # Class of committed instruction
system.switch_cpus_1.commit.op_class_0::FloatMemWrite      8790786      4.39%    100.00% # Class of committed instruction
system.switch_cpus_1.commit.op_class_0::IprAccess            0      0.00%    100.00% # Class of committed instruction
system.switch_cpus_1.commit.op_class_0::InstPrefetch            0      0.00%    100.00% # Class of committed instruction
system.switch_cpus_1.commit.op_class_0::total    200185515                       # Class of committed instruction
system.switch_cpus_1.commit.bw_lim_events     17154204                       # number cycles where commit BW limit reached
system.switch_cpus_1.rob.rob_reads          856880190                       # The number of ROB reads
system.switch_cpus_1.rob.rob_writes         448485623                       # The number of ROB writes
system.switch_cpus_1.timesIdled                   372                       # Number of times that the entire CPU went into an idle state and unscheduled itself
system.switch_cpus_1.idleCycles                 75775                       # Total number of cycles that the CPU has spent unscheduled due to idling
system.switch_cpus_1.committedInsts         200000002                       # Number of Instructions Simulated
system.switch_cpus_1.committedOps           200000002                       # Number of Ops (including micro ops) Simulated
system.switch_cpus_1.cpi                     3.291170                       # CPI: Cycles Per Instruction
system.switch_cpus_1.cpi_total               3.291170                       # CPI: Total CPI of All Threads
system.switch_cpus_1.ipc                     0.303843                       # IPC: Instructions Per Cycle
system.switch_cpus_1.ipc_total               0.303843                       # IPC: Total IPC of All Threads
system.switch_cpus_1.int_regfile_reads      181530131                       # number of integer regfile reads
system.switch_cpus_1.int_regfile_writes      69123476                       # number of integer regfile writes
system.switch_cpus_1.fp_regfile_reads       147036394                       # number of floating regfile reads
system.switch_cpus_1.fp_regfile_writes      133642606                       # number of floating regfile writes
system.tol3bus.snoop_filter.tot_requests     39183942                       # Total number of requests made to the snoop filter.
system.tol3bus.snoop_filter.hit_single_requests     19589640                       # Number of requests hitting in the snoop filter with a single holder of the requested data.
system.tol3bus.snoop_filter.hit_multi_requests            0                       # Number of requests hitting in the snoop filter with multiple (>1) holders of the requested data.
system.tol3bus.snoop_filter.tot_snoops           4167                       # Total number of snoops made to the snoop filter.
system.tol3bus.snoop_filter.hit_single_snoops         4167                       # Number of snoops hitting in the snoop filter with a single holder of the requested data.
system.tol3bus.snoop_filter.hit_multi_snoops            0                       # Number of snoops hitting in the snoop filter with multiple (>1) holders of the requested data.
system.tol3bus.pwrStateResidencyTicks::UNDEFINED 147149872820343                       # Cumulative time (in ticks) in various power states
system.tol3bus.trans_dist::ReadResp          19456448                       # Transaction distribution
system.tol3bus.trans_dist::WritebackDirty     17799131                       # Transaction distribution
system.tol3bus.trans_dist::CleanEvict        18122918                       # Transaction distribution
system.tol3bus.trans_dist::UpgradeReq               5                       # Transaction distribution
system.tol3bus.trans_dist::UpgradeResp              5                       # Transaction distribution
system.tol3bus.trans_dist::ReadExReq           137852                       # Transaction distribution
system.tol3bus.trans_dist::ReadExResp          137852                       # Transaction distribution
system.tol3bus.trans_dist::ReadSharedReq     19456450                       # Transaction distribution
system.tol3bus.pkt_count_system.cpu.l2.mem_side::system.l3.cpu_side     58778247                       # Packet count per connected master and slave (bytes)
system.tol3bus.pkt_size_system.cpu.l2.mem_side::system.l3.cpu_side   1832312128                       # Cumulative packet size per connected master and slave (bytes)
system.tol3bus.snoops                        16332414                       # Total snoops (count)
system.tol3bus.snoopTraffic                 560867456                       # Total snoop traffic (bytes)
system.tol3bus.snoop_fanout::samples         35926721                       # Request fanout histogram
system.tol3bus.snoop_fanout::mean            0.000116                       # Request fanout histogram
system.tol3bus.snoop_fanout::stdev           0.010769                       # Request fanout histogram
system.tol3bus.snoop_fanout::underflows             0      0.00%      0.00% # Request fanout histogram
system.tol3bus.snoop_fanout::0               35922554     99.99%     99.99% # Request fanout histogram
system.tol3bus.snoop_fanout::1                   4167      0.01%    100.00% # Request fanout histogram
system.tol3bus.snoop_fanout::overflows              0      0.00%    100.00% # Request fanout histogram
system.tol3bus.snoop_fanout::min_value              0                       # Request fanout histogram
system.tol3bus.snoop_fanout::max_value              1                       # Request fanout histogram
system.tol3bus.snoop_fanout::total           35926721                       # Request fanout histogram
system.tol3bus.reqLayer0.occupancy        16057099827                       # Layer occupancy (ticks)
system.tol3bus.reqLayer0.utilization              0.4                       # Layer utilization (%)
system.tol3bus.respLayer0.occupancy       13049805465                       # Layer occupancy (ticks)
system.tol3bus.respLayer0.utilization             0.4                       # Layer utilization (%)

---------- End Simulation Statistics   ----------
