
---------- Begin Simulation Statistics ----------
sim_seconds                                  1.133043                       # Number of seconds simulated
sim_ticks                                1133042915574                       # Number of ticks simulated
final_tick                               31144457076624                       # Number of ticks from beginning of simulation (restored from checkpoints and never reset)
sim_freq                                 1000000000000                       # Frequency of simulated ticks
host_inst_rate                                 462473                       # Simulator instruction rate (inst/s)
host_op_rate                                   462473                       # Simulator op (including micro ops) rate (op/s)
host_tick_rate                              349334212                       # Simulator tick rate (ticks/s)
host_mem_usage                                2428848                       # Number of bytes of host memory used
host_seconds                                  3243.44                       # Real time elapsed on the host
sim_insts                                  1500000012                       # Number of instructions simulated
sim_ops                                    1500000012                       # Number of ops (including micro ops) simulated
system.voltage_domain.voltage                       1                       # Voltage in Volts
system.clk_domain.clock                          1000                       # Clock period in ticks
system.mem_ctrls0.pwrStateResidencyTicks::UNDEFINED 31144457076624                       # Cumulative time (in ticks) in various power states
system.mem_ctrls0.bytes_read::cpu.inst             64                       # Number of bytes read from this memory
system.mem_ctrls0.bytes_read::switch_cpus.inst       138560                       # Number of bytes read from this memory
system.mem_ctrls0.bytes_read::switch_cpus.data      3630976                       # Number of bytes read from this memory
system.mem_ctrls0.bytes_read::switch_cpus_1.inst       220288                       # Number of bytes read from this memory
system.mem_ctrls0.bytes_read::switch_cpus_1.data      5202304                       # Number of bytes read from this memory
system.mem_ctrls0.bytes_read::total           9192192                       # Number of bytes read from this memory
system.mem_ctrls0.bytes_inst_read::cpu.inst           64                       # Number of instructions bytes read from this memory
system.mem_ctrls0.bytes_inst_read::switch_cpus.inst       138560                       # Number of instructions bytes read from this memory
system.mem_ctrls0.bytes_inst_read::switch_cpus_1.inst       220288                       # Number of instructions bytes read from this memory
system.mem_ctrls0.bytes_inst_read::total       358912                       # Number of instructions bytes read from this memory
system.mem_ctrls0.bytes_written::writebacks      1640640                       # Number of bytes written to this memory
system.mem_ctrls0.bytes_written::total        1640640                       # Number of bytes written to this memory
system.mem_ctrls0.num_reads::cpu.inst               1                       # Number of read requests responded to by this memory
system.mem_ctrls0.num_reads::switch_cpus.inst         2165                       # Number of read requests responded to by this memory
system.mem_ctrls0.num_reads::switch_cpus.data        56734                       # Number of read requests responded to by this memory
system.mem_ctrls0.num_reads::switch_cpus_1.inst         3442                       # Number of read requests responded to by this memory
system.mem_ctrls0.num_reads::switch_cpus_1.data        81286                       # Number of read requests responded to by this memory
system.mem_ctrls0.num_reads::total             143628                       # Number of read requests responded to by this memory
system.mem_ctrls0.num_writes::writebacks        25635                       # Number of write requests responded to by this memory
system.mem_ctrls0.num_writes::total             25635                       # Number of write requests responded to by this memory
system.mem_ctrls0.bw_read::cpu.inst                56                       # Total read bandwidth from this memory (bytes/s)
system.mem_ctrls0.bw_read::switch_cpus.inst       122290                       # Total read bandwidth from this memory (bytes/s)
system.mem_ctrls0.bw_read::switch_cpus.data      3204624                       # Total read bandwidth from this memory (bytes/s)
system.mem_ctrls0.bw_read::switch_cpus_1.inst       194422                       # Total read bandwidth from this memory (bytes/s)
system.mem_ctrls0.bw_read::switch_cpus_1.data      4591445                       # Total read bandwidth from this memory (bytes/s)
system.mem_ctrls0.bw_read::total              8112837                       # Total read bandwidth from this memory (bytes/s)
system.mem_ctrls0.bw_inst_read::cpu.inst           56                       # Instruction read bandwidth from this memory (bytes/s)
system.mem_ctrls0.bw_inst_read::switch_cpus.inst       122290                       # Instruction read bandwidth from this memory (bytes/s)
system.mem_ctrls0.bw_inst_read::switch_cpus_1.inst       194422                       # Instruction read bandwidth from this memory (bytes/s)
system.mem_ctrls0.bw_inst_read::total          316768                       # Instruction read bandwidth from this memory (bytes/s)
system.mem_ctrls0.bw_write::writebacks        1447995                       # Write bandwidth from this memory (bytes/s)
system.mem_ctrls0.bw_write::total             1447995                       # Write bandwidth from this memory (bytes/s)
system.mem_ctrls0.bw_total::writebacks        1447995                       # Total bandwidth to/from this memory (bytes/s)
system.mem_ctrls0.bw_total::cpu.inst               56                       # Total bandwidth to/from this memory (bytes/s)
system.mem_ctrls0.bw_total::switch_cpus.inst       122290                       # Total bandwidth to/from this memory (bytes/s)
system.mem_ctrls0.bw_total::switch_cpus.data      3204624                       # Total bandwidth to/from this memory (bytes/s)
system.mem_ctrls0.bw_total::switch_cpus_1.inst       194422                       # Total bandwidth to/from this memory (bytes/s)
system.mem_ctrls0.bw_total::switch_cpus_1.data      4591445                       # Total bandwidth to/from this memory (bytes/s)
system.mem_ctrls0.bw_total::total             9560831                       # Total bandwidth to/from this memory (bytes/s)
system.mem_ctrls0.readReqs                     143628                       # Number of read requests accepted
system.mem_ctrls0.writeReqs                     25635                       # Number of write requests accepted
system.mem_ctrls0.readBursts                   143628                       # Number of DRAM read bursts, including those serviced by the write queue
system.mem_ctrls0.writeBursts                   25635                       # Number of DRAM write bursts, including those merged in the write queue
system.mem_ctrls0.bytesReadDRAM               9188800                       # Total number of bytes read from DRAM
system.mem_ctrls0.bytesReadWrQ                   3392                       # Total number of bytes read from write queue
system.mem_ctrls0.bytesWritten                1638976                       # Total number of bytes written to DRAM
system.mem_ctrls0.bytesReadSys                9192192                       # Total read bytes from the system interface side
system.mem_ctrls0.bytesWrittenSys             1640640                       # Total written bytes from the system interface side
system.mem_ctrls0.servicedByWrQ                    53                       # Number of DRAM read bursts serviced by the write queue
system.mem_ctrls0.mergedWrBursts                    0                       # Number of DRAM write bursts merged with an existing one
system.mem_ctrls0.neitherReadNorWriteReqs            0                       # Number of requests that are neither read nor write
system.mem_ctrls0.perBankRdBursts::0             8817                       # Per bank write bursts
system.mem_ctrls0.perBankRdBursts::1             8998                       # Per bank write bursts
system.mem_ctrls0.perBankRdBursts::2            10047                       # Per bank write bursts
system.mem_ctrls0.perBankRdBursts::3             9530                       # Per bank write bursts
system.mem_ctrls0.perBankRdBursts::4             8820                       # Per bank write bursts
system.mem_ctrls0.perBankRdBursts::5             8789                       # Per bank write bursts
system.mem_ctrls0.perBankRdBursts::6             8181                       # Per bank write bursts
system.mem_ctrls0.perBankRdBursts::7             8337                       # Per bank write bursts
system.mem_ctrls0.perBankRdBursts::8             8639                       # Per bank write bursts
system.mem_ctrls0.perBankRdBursts::9             8585                       # Per bank write bursts
system.mem_ctrls0.perBankRdBursts::10            8326                       # Per bank write bursts
system.mem_ctrls0.perBankRdBursts::11            8438                       # Per bank write bursts
system.mem_ctrls0.perBankRdBursts::12           10159                       # Per bank write bursts
system.mem_ctrls0.perBankRdBursts::13            9144                       # Per bank write bursts
system.mem_ctrls0.perBankRdBursts::14            9260                       # Per bank write bursts
system.mem_ctrls0.perBankRdBursts::15            9505                       # Per bank write bursts
system.mem_ctrls0.perBankWrBursts::0             1497                       # Per bank write bursts
system.mem_ctrls0.perBankWrBursts::1             1732                       # Per bank write bursts
system.mem_ctrls0.perBankWrBursts::2             1995                       # Per bank write bursts
system.mem_ctrls0.perBankWrBursts::3             1702                       # Per bank write bursts
system.mem_ctrls0.perBankWrBursts::4             1502                       # Per bank write bursts
system.mem_ctrls0.perBankWrBursts::5             1459                       # Per bank write bursts
system.mem_ctrls0.perBankWrBursts::6             1213                       # Per bank write bursts
system.mem_ctrls0.perBankWrBursts::7             1386                       # Per bank write bursts
system.mem_ctrls0.perBankWrBursts::8             1563                       # Per bank write bursts
system.mem_ctrls0.perBankWrBursts::9             1467                       # Per bank write bursts
system.mem_ctrls0.perBankWrBursts::10            1367                       # Per bank write bursts
system.mem_ctrls0.perBankWrBursts::11            1526                       # Per bank write bursts
system.mem_ctrls0.perBankWrBursts::12            1936                       # Per bank write bursts
system.mem_ctrls0.perBankWrBursts::13            1701                       # Per bank write bursts
system.mem_ctrls0.perBankWrBursts::14            1889                       # Per bank write bursts
system.mem_ctrls0.perBankWrBursts::15            1674                       # Per bank write bursts
system.mem_ctrls0.numRdRetry                        0                       # Number of times read queue was full causing retry
system.mem_ctrls0.numWrRetry                        0                       # Number of times write queue was full causing retry
system.mem_ctrls0.totGap                 1132997950584                       # Total gap between requests
system.mem_ctrls0.readPktSize::0                    0                       # Read request sizes (log2)
system.mem_ctrls0.readPktSize::1                    0                       # Read request sizes (log2)
system.mem_ctrls0.readPktSize::2                    0                       # Read request sizes (log2)
system.mem_ctrls0.readPktSize::3                    0                       # Read request sizes (log2)
system.mem_ctrls0.readPktSize::4                    0                       # Read request sizes (log2)
system.mem_ctrls0.readPktSize::5                    0                       # Read request sizes (log2)
system.mem_ctrls0.readPktSize::6               143628                       # Read request sizes (log2)
system.mem_ctrls0.writePktSize::0                   0                       # Write request sizes (log2)
system.mem_ctrls0.writePktSize::1                   0                       # Write request sizes (log2)
system.mem_ctrls0.writePktSize::2                   0                       # Write request sizes (log2)
system.mem_ctrls0.writePktSize::3                   0                       # Write request sizes (log2)
system.mem_ctrls0.writePktSize::4                   0                       # Write request sizes (log2)
system.mem_ctrls0.writePktSize::5                   0                       # Write request sizes (log2)
system.mem_ctrls0.writePktSize::6               25635                       # Write request sizes (log2)
system.mem_ctrls0.rdQLenPdf::0                 137429                       # What read queue length does an incoming req see
system.mem_ctrls0.rdQLenPdf::1                   5950                       # What read queue length does an incoming req see
system.mem_ctrls0.rdQLenPdf::2                    182                       # What read queue length does an incoming req see
system.mem_ctrls0.rdQLenPdf::3                     14                       # What read queue length does an incoming req see
system.mem_ctrls0.rdQLenPdf::4                      0                       # What read queue length does an incoming req see
system.mem_ctrls0.rdQLenPdf::5                      0                       # What read queue length does an incoming req see
system.mem_ctrls0.rdQLenPdf::6                      0                       # What read queue length does an incoming req see
system.mem_ctrls0.rdQLenPdf::7                      0                       # What read queue length does an incoming req see
system.mem_ctrls0.rdQLenPdf::8                      0                       # What read queue length does an incoming req see
system.mem_ctrls0.rdQLenPdf::9                      0                       # What read queue length does an incoming req see
system.mem_ctrls0.rdQLenPdf::10                     0                       # What read queue length does an incoming req see
system.mem_ctrls0.rdQLenPdf::11                     0                       # What read queue length does an incoming req see
system.mem_ctrls0.rdQLenPdf::12                     0                       # What read queue length does an incoming req see
system.mem_ctrls0.rdQLenPdf::13                     0                       # What read queue length does an incoming req see
system.mem_ctrls0.rdQLenPdf::14                     0                       # What read queue length does an incoming req see
system.mem_ctrls0.rdQLenPdf::15                     0                       # What read queue length does an incoming req see
system.mem_ctrls0.rdQLenPdf::16                     0                       # What read queue length does an incoming req see
system.mem_ctrls0.rdQLenPdf::17                     0                       # What read queue length does an incoming req see
system.mem_ctrls0.rdQLenPdf::18                     0                       # What read queue length does an incoming req see
system.mem_ctrls0.rdQLenPdf::19                     0                       # What read queue length does an incoming req see
system.mem_ctrls0.rdQLenPdf::20                     0                       # What read queue length does an incoming req see
system.mem_ctrls0.rdQLenPdf::21                     0                       # What read queue length does an incoming req see
system.mem_ctrls0.rdQLenPdf::22                     0                       # What read queue length does an incoming req see
system.mem_ctrls0.rdQLenPdf::23                     0                       # What read queue length does an incoming req see
system.mem_ctrls0.rdQLenPdf::24                     0                       # What read queue length does an incoming req see
system.mem_ctrls0.rdQLenPdf::25                     0                       # What read queue length does an incoming req see
system.mem_ctrls0.rdQLenPdf::26                     0                       # What read queue length does an incoming req see
system.mem_ctrls0.rdQLenPdf::27                     0                       # What read queue length does an incoming req see
system.mem_ctrls0.rdQLenPdf::28                     0                       # What read queue length does an incoming req see
system.mem_ctrls0.rdQLenPdf::29                     0                       # What read queue length does an incoming req see
system.mem_ctrls0.rdQLenPdf::30                     0                       # What read queue length does an incoming req see
system.mem_ctrls0.rdQLenPdf::31                     0                       # What read queue length does an incoming req see
system.mem_ctrls0.wrQLenPdf::0                      2                       # What write queue length does an incoming req see
system.mem_ctrls0.wrQLenPdf::1                      2                       # What write queue length does an incoming req see
system.mem_ctrls0.wrQLenPdf::2                      2                       # What write queue length does an incoming req see
system.mem_ctrls0.wrQLenPdf::3                      2                       # What write queue length does an incoming req see
system.mem_ctrls0.wrQLenPdf::4                      2                       # What write queue length does an incoming req see
system.mem_ctrls0.wrQLenPdf::5                      2                       # What write queue length does an incoming req see
system.mem_ctrls0.wrQLenPdf::6                      2                       # What write queue length does an incoming req see
system.mem_ctrls0.wrQLenPdf::7                      2                       # What write queue length does an incoming req see
system.mem_ctrls0.wrQLenPdf::8                      2                       # What write queue length does an incoming req see
system.mem_ctrls0.wrQLenPdf::9                      2                       # What write queue length does an incoming req see
system.mem_ctrls0.wrQLenPdf::10                     2                       # What write queue length does an incoming req see
system.mem_ctrls0.wrQLenPdf::11                     2                       # What write queue length does an incoming req see
system.mem_ctrls0.wrQLenPdf::12                     2                       # What write queue length does an incoming req see
system.mem_ctrls0.wrQLenPdf::13                     2                       # What write queue length does an incoming req see
system.mem_ctrls0.wrQLenPdf::14                     2                       # What write queue length does an incoming req see
system.mem_ctrls0.wrQLenPdf::15                   880                       # What write queue length does an incoming req see
system.mem_ctrls0.wrQLenPdf::16                   924                       # What write queue length does an incoming req see
system.mem_ctrls0.wrQLenPdf::17                  1469                       # What write queue length does an incoming req see
system.mem_ctrls0.wrQLenPdf::18                  1487                       # What write queue length does an incoming req see
system.mem_ctrls0.wrQLenPdf::19                  1491                       # What write queue length does an incoming req see
system.mem_ctrls0.wrQLenPdf::20                  1488                       # What write queue length does an incoming req see
system.mem_ctrls0.wrQLenPdf::21                  1489                       # What write queue length does an incoming req see
system.mem_ctrls0.wrQLenPdf::22                  1490                       # What write queue length does an incoming req see
system.mem_ctrls0.wrQLenPdf::23                  1487                       # What write queue length does an incoming req see
system.mem_ctrls0.wrQLenPdf::24                  1490                       # What write queue length does an incoming req see
system.mem_ctrls0.wrQLenPdf::25                  1490                       # What write queue length does an incoming req see
system.mem_ctrls0.wrQLenPdf::26                  1491                       # What write queue length does an incoming req see
system.mem_ctrls0.wrQLenPdf::27                  1488                       # What write queue length does an incoming req see
system.mem_ctrls0.wrQLenPdf::28                  1488                       # What write queue length does an incoming req see
system.mem_ctrls0.wrQLenPdf::29                  1489                       # What write queue length does an incoming req see
system.mem_ctrls0.wrQLenPdf::30                  1493                       # What write queue length does an incoming req see
system.mem_ctrls0.wrQLenPdf::31                  1485                       # What write queue length does an incoming req see
system.mem_ctrls0.wrQLenPdf::32                  1485                       # What write queue length does an incoming req see
system.mem_ctrls0.wrQLenPdf::33                     1                       # What write queue length does an incoming req see
system.mem_ctrls0.wrQLenPdf::34                     0                       # What write queue length does an incoming req see
system.mem_ctrls0.wrQLenPdf::35                     0                       # What write queue length does an incoming req see
system.mem_ctrls0.wrQLenPdf::36                     0                       # What write queue length does an incoming req see
system.mem_ctrls0.wrQLenPdf::37                     0                       # What write queue length does an incoming req see
system.mem_ctrls0.wrQLenPdf::38                     0                       # What write queue length does an incoming req see
system.mem_ctrls0.wrQLenPdf::39                     0                       # What write queue length does an incoming req see
system.mem_ctrls0.wrQLenPdf::40                     0                       # What write queue length does an incoming req see
system.mem_ctrls0.wrQLenPdf::41                     0                       # What write queue length does an incoming req see
system.mem_ctrls0.wrQLenPdf::42                     0                       # What write queue length does an incoming req see
system.mem_ctrls0.wrQLenPdf::43                     0                       # What write queue length does an incoming req see
system.mem_ctrls0.wrQLenPdf::44                     0                       # What write queue length does an incoming req see
system.mem_ctrls0.wrQLenPdf::45                     0                       # What write queue length does an incoming req see
system.mem_ctrls0.wrQLenPdf::46                     0                       # What write queue length does an incoming req see
system.mem_ctrls0.wrQLenPdf::47                     0                       # What write queue length does an incoming req see
system.mem_ctrls0.wrQLenPdf::48                     0                       # What write queue length does an incoming req see
system.mem_ctrls0.wrQLenPdf::49                     0                       # What write queue length does an incoming req see
system.mem_ctrls0.wrQLenPdf::50                     0                       # What write queue length does an incoming req see
system.mem_ctrls0.wrQLenPdf::51                     0                       # What write queue length does an incoming req see
system.mem_ctrls0.wrQLenPdf::52                     0                       # What write queue length does an incoming req see
system.mem_ctrls0.wrQLenPdf::53                     0                       # What write queue length does an incoming req see
system.mem_ctrls0.wrQLenPdf::54                     0                       # What write queue length does an incoming req see
system.mem_ctrls0.wrQLenPdf::55                     0                       # What write queue length does an incoming req see
system.mem_ctrls0.wrQLenPdf::56                     0                       # What write queue length does an incoming req see
system.mem_ctrls0.wrQLenPdf::57                     0                       # What write queue length does an incoming req see
system.mem_ctrls0.wrQLenPdf::58                     0                       # What write queue length does an incoming req see
system.mem_ctrls0.wrQLenPdf::59                     0                       # What write queue length does an incoming req see
system.mem_ctrls0.wrQLenPdf::60                     0                       # What write queue length does an incoming req see
system.mem_ctrls0.wrQLenPdf::61                     0                       # What write queue length does an incoming req see
system.mem_ctrls0.wrQLenPdf::62                     0                       # What write queue length does an incoming req see
system.mem_ctrls0.wrQLenPdf::63                     0                       # What write queue length does an incoming req see
system.mem_ctrls0.bytesPerActivate::samples        85319                       # Bytes accessed per row activation
system.mem_ctrls0.bytesPerActivate::mean   126.909317                       # Bytes accessed per row activation
system.mem_ctrls0.bytesPerActivate::gmean    93.234302                       # Bytes accessed per row activation
system.mem_ctrls0.bytesPerActivate::stdev   149.989990                       # Bytes accessed per row activation
system.mem_ctrls0.bytesPerActivate::0-127        58685     68.78%     68.78% # Bytes accessed per row activation
system.mem_ctrls0.bytesPerActivate::128-255        16573     19.42%     88.21% # Bytes accessed per row activation
system.mem_ctrls0.bytesPerActivate::256-383         4190      4.91%     93.12% # Bytes accessed per row activation
system.mem_ctrls0.bytesPerActivate::384-511         2325      2.73%     95.84% # Bytes accessed per row activation
system.mem_ctrls0.bytesPerActivate::512-639         1355      1.59%     97.43% # Bytes accessed per row activation
system.mem_ctrls0.bytesPerActivate::640-767          783      0.92%     98.35% # Bytes accessed per row activation
system.mem_ctrls0.bytesPerActivate::768-895          472      0.55%     98.90% # Bytes accessed per row activation
system.mem_ctrls0.bytesPerActivate::896-1023          271      0.32%     99.22% # Bytes accessed per row activation
system.mem_ctrls0.bytesPerActivate::1024-1151          665      0.78%    100.00% # Bytes accessed per row activation
system.mem_ctrls0.bytesPerActivate::total        85319                       # Bytes accessed per row activation
system.mem_ctrls0.rdPerTurnAround::samples         1486                       # Reads before turning the bus around for writes
system.mem_ctrls0.rdPerTurnAround::mean     96.573351                       # Reads before turning the bus around for writes
system.mem_ctrls0.rdPerTurnAround::gmean    69.484285                       # Reads before turning the bus around for writes
system.mem_ctrls0.rdPerTurnAround::stdev   703.252236                       # Reads before turning the bus around for writes
system.mem_ctrls0.rdPerTurnAround::0-1023         1484     99.87%     99.87% # Reads before turning the bus around for writes
system.mem_ctrls0.rdPerTurnAround::1024-2047            1      0.07%     99.93% # Reads before turning the bus around for writes
system.mem_ctrls0.rdPerTurnAround::26624-27647            1      0.07%    100.00% # Reads before turning the bus around for writes
system.mem_ctrls0.rdPerTurnAround::total         1486                       # Reads before turning the bus around for writes
system.mem_ctrls0.wrPerTurnAround::samples         1486                       # Writes before turning the bus around for reads
system.mem_ctrls0.wrPerTurnAround::mean     17.233513                       # Writes before turning the bus around for reads
system.mem_ctrls0.wrPerTurnAround::gmean    17.204480                       # Writes before turning the bus around for reads
system.mem_ctrls0.wrPerTurnAround::stdev     0.993572                       # Writes before turning the bus around for reads
system.mem_ctrls0.wrPerTurnAround::16             566     38.09%     38.09% # Writes before turning the bus around for reads
system.mem_ctrls0.wrPerTurnAround::17              40      2.69%     40.78% # Writes before turning the bus around for reads
system.mem_ctrls0.wrPerTurnAround::18             848     57.07%     97.85% # Writes before turning the bus around for reads
system.mem_ctrls0.wrPerTurnAround::19              31      2.09%     99.93% # Writes before turning the bus around for reads
system.mem_ctrls0.wrPerTurnAround::20               1      0.07%    100.00% # Writes before turning the bus around for reads
system.mem_ctrls0.wrPerTurnAround::total         1486                       # Writes before turning the bus around for reads
system.mem_ctrls0.totQLat                  5177213919                       # Total ticks spent queuing
system.mem_ctrls0.totMemAccLat             7869245169                       # Total ticks spent from burst creation until serviced by the DRAM
system.mem_ctrls0.totBusLat                 717875000                       # Total ticks spent in databus transfers
system.mem_ctrls0.avgQLat                    36059.30                       # Average queueing delay per DRAM burst
system.mem_ctrls0.avgBusLat                   5000.00                       # Average bus latency per DRAM burst
system.mem_ctrls0.avgMemAccLat               54809.30                       # Average memory access latency per DRAM burst
system.mem_ctrls0.avgRdBW                        8.11                       # Average DRAM read bandwidth in MiByte/s
system.mem_ctrls0.avgWrBW                        1.45                       # Average achieved write bandwidth in MiByte/s
system.mem_ctrls0.avgRdBWSys                     8.11                       # Average system read bandwidth in MiByte/s
system.mem_ctrls0.avgWrBWSys                     1.45                       # Average system write bandwidth in MiByte/s
system.mem_ctrls0.peakBW                     12800.00                       # Theoretical peak bandwidth in MiByte/s
system.mem_ctrls0.busUtil                        0.07                       # Data bus utilization in percentage
system.mem_ctrls0.busUtilRead                    0.06                       # Data bus utilization in percentage for reads
system.mem_ctrls0.busUtilWrite                   0.01                       # Data bus utilization in percentage for writes
system.mem_ctrls0.avgRdQLen                      1.01                       # Average read queue length when enqueuing
system.mem_ctrls0.avgWrQLen                     17.96                       # Average write queue length when enqueuing
system.mem_ctrls0.readRowHits                   80442                       # Number of row buffer hits during reads
system.mem_ctrls0.writeRowHits                   3423                       # Number of row buffer hits during writes
system.mem_ctrls0.readRowHitRate                56.03                       # Row buffer hit rate for reads
system.mem_ctrls0.writeRowHitRate               13.35                       # Row buffer hit rate for writes
system.mem_ctrls0.avgGap                   6693713.04                       # Average gap between requests
system.mem_ctrls0.pageHitRate                   49.56                       # Row buffer hit rate, read and write combined
system.mem_ctrls0_0.actEnergy               307712580                       # Energy for activate commands per rank (pJ)
system.mem_ctrls0_0.preEnergy               163553115                       # Energy for precharge commands per rank (pJ)
system.mem_ctrls0_0.readEnergy              510645660                       # Energy for read commands per rank (pJ)
system.mem_ctrls0_0.writeEnergy              65176920                       # Energy for write commands per rank (pJ)
system.mem_ctrls0_0.refreshEnergy        8754932160.000002                       # Energy for refresh commands per rank (pJ)
system.mem_ctrls0_0.actBackEnergy          3470116680                       # Energy for active background per rank (pJ)
system.mem_ctrls0_0.preBackEnergy           409056480                       # Energy for precharge background per rank (pJ)
system.mem_ctrls0_0.actPowerDownEnergy    25496339970                       # Energy for active power-down per rank (pJ)
system.mem_ctrls0_0.prePowerDownEnergy    10913356800                       # Energy for precharge power-down per rank (pJ)
system.mem_ctrls0_0.selfRefreshEnergy    250972209690                       # Energy for self refresh per rank (pJ)
system.mem_ctrls0_0.totalEnergy          301065628935                       # Total energy per rank (pJ)
system.mem_ctrls0_0.averagePower           265.714232                       # Core power per rank (mW)
system.mem_ctrls0_0.totalIdleTime        1124330564948                       # Total Idle time Per DRAM Rank
system.mem_ctrls0_0.memoryStateTime::IDLE    717034958                       # Time in different power states
system.mem_ctrls0_0.memoryStateTime::REF   3718536000                       # Time in different power states
system.mem_ctrls0_0.memoryStateTime::SREF 1040028921574                       # Time in different power states
system.mem_ctrls0_0.memoryStateTime::PRE_PDN  28420340891                       # Time in different power states
system.mem_ctrls0_0.memoryStateTime::ACT   4245336811                       # Time in different power states
system.mem_ctrls0_0.memoryStateTime::ACT_PDN  55912745340                       # Time in different power states
system.mem_ctrls0_1.actEnergy               301465080                       # Energy for activate commands per rank (pJ)
system.mem_ctrls0_1.preEnergy               160232490                       # Energy for precharge commands per rank (pJ)
system.mem_ctrls0_1.readEnergy              514479840                       # Energy for read commands per rank (pJ)
system.mem_ctrls0_1.writeEnergy              68502060                       # Energy for write commands per rank (pJ)
system.mem_ctrls0_1.refreshEnergy        8785049520.000002                       # Energy for refresh commands per rank (pJ)
system.mem_ctrls0_1.actBackEnergy          3457303080                       # Energy for active background per rank (pJ)
system.mem_ctrls0_1.preBackEnergy           409353120                       # Energy for precharge background per rank (pJ)
system.mem_ctrls0_1.actPowerDownEnergy    25591128120                       # Energy for active power-down per rank (pJ)
system.mem_ctrls0_1.prePowerDownEnergy    10876737120                       # Energy for precharge power-down per rank (pJ)
system.mem_ctrls0_1.selfRefreshEnergy    250974291810                       # Energy for self refresh per rank (pJ)
system.mem_ctrls0_1.totalEnergy          301140662010                       # Total energy per rank (pJ)
system.mem_ctrls0_1.averagePower           265.780455                       # Core power per rank (mW)
system.mem_ctrls0_1.totalIdleTime        1124352898123                       # Total Idle time Per DRAM Rank
system.mem_ctrls0_1.memoryStateTime::IDLE    718316182                       # Time in different power states
system.mem_ctrls0_1.memoryStateTime::REF   3731450000                       # Time in different power states
system.mem_ctrls0_1.memoryStateTime::SREF 1039944655574                       # Time in different power states
system.mem_ctrls0_1.memoryStateTime::PRE_PDN  28324870252                       # Time in different power states
system.mem_ctrls0_1.memoryStateTime::ACT   4202939576                       # Time in different power states
system.mem_ctrls0_1.memoryStateTime::ACT_PDN  56120683990                       # Time in different power states
system.mem_ctrls1.pwrStateResidencyTicks::UNDEFINED 31144457076624                       # Cumulative time (in ticks) in various power states
system.mem_ctrls1.bytes_read::cpu.inst            192                       # Number of bytes read from this memory
system.mem_ctrls1.bytes_read::cpu.data            192                       # Number of bytes read from this memory
system.mem_ctrls1.bytes_read::switch_cpus.inst       138304                       # Number of bytes read from this memory
system.mem_ctrls1.bytes_read::switch_cpus.data      3635584                       # Number of bytes read from this memory
system.mem_ctrls1.bytes_read::switch_cpus_1.inst       225408                       # Number of bytes read from this memory
system.mem_ctrls1.bytes_read::switch_cpus_1.data      5210880                       # Number of bytes read from this memory
system.mem_ctrls1.bytes_read::total           9210560                       # Number of bytes read from this memory
system.mem_ctrls1.bytes_inst_read::cpu.inst          192                       # Number of instructions bytes read from this memory
system.mem_ctrls1.bytes_inst_read::switch_cpus.inst       138304                       # Number of instructions bytes read from this memory
system.mem_ctrls1.bytes_inst_read::switch_cpus_1.inst       225408                       # Number of instructions bytes read from this memory
system.mem_ctrls1.bytes_inst_read::total       363904                       # Number of instructions bytes read from this memory
system.mem_ctrls1.bytes_written::writebacks      1629248                       # Number of bytes written to this memory
system.mem_ctrls1.bytes_written::total        1629248                       # Number of bytes written to this memory
system.mem_ctrls1.num_reads::cpu.inst               3                       # Number of read requests responded to by this memory
system.mem_ctrls1.num_reads::cpu.data               3                       # Number of read requests responded to by this memory
system.mem_ctrls1.num_reads::switch_cpus.inst         2161                       # Number of read requests responded to by this memory
system.mem_ctrls1.num_reads::switch_cpus.data        56806                       # Number of read requests responded to by this memory
system.mem_ctrls1.num_reads::switch_cpus_1.inst         3522                       # Number of read requests responded to by this memory
system.mem_ctrls1.num_reads::switch_cpus_1.data        81420                       # Number of read requests responded to by this memory
system.mem_ctrls1.num_reads::total             143915                       # Number of read requests responded to by this memory
system.mem_ctrls1.num_writes::writebacks        25457                       # Number of write requests responded to by this memory
system.mem_ctrls1.num_writes::total             25457                       # Number of write requests responded to by this memory
system.mem_ctrls1.bw_read::cpu.inst               169                       # Total read bandwidth from this memory (bytes/s)
system.mem_ctrls1.bw_read::cpu.data               169                       # Total read bandwidth from this memory (bytes/s)
system.mem_ctrls1.bw_read::switch_cpus.inst       122064                       # Total read bandwidth from this memory (bytes/s)
system.mem_ctrls1.bw_read::switch_cpus.data      3208690                       # Total read bandwidth from this memory (bytes/s)
system.mem_ctrls1.bw_read::switch_cpus_1.inst       198940                       # Total read bandwidth from this memory (bytes/s)
system.mem_ctrls1.bw_read::switch_cpus_1.data      4599014                       # Total read bandwidth from this memory (bytes/s)
system.mem_ctrls1.bw_read::total              8129048                       # Total read bandwidth from this memory (bytes/s)
system.mem_ctrls1.bw_inst_read::cpu.inst          169                       # Instruction read bandwidth from this memory (bytes/s)
system.mem_ctrls1.bw_inst_read::switch_cpus.inst       122064                       # Instruction read bandwidth from this memory (bytes/s)
system.mem_ctrls1.bw_inst_read::switch_cpus_1.inst       198940                       # Instruction read bandwidth from this memory (bytes/s)
system.mem_ctrls1.bw_inst_read::total          321174                       # Instruction read bandwidth from this memory (bytes/s)
system.mem_ctrls1.bw_write::writebacks        1437940                       # Write bandwidth from this memory (bytes/s)
system.mem_ctrls1.bw_write::total             1437940                       # Write bandwidth from this memory (bytes/s)
system.mem_ctrls1.bw_total::writebacks        1437940                       # Total bandwidth to/from this memory (bytes/s)
system.mem_ctrls1.bw_total::cpu.inst              169                       # Total bandwidth to/from this memory (bytes/s)
system.mem_ctrls1.bw_total::cpu.data              169                       # Total bandwidth to/from this memory (bytes/s)
system.mem_ctrls1.bw_total::switch_cpus.inst       122064                       # Total bandwidth to/from this memory (bytes/s)
system.mem_ctrls1.bw_total::switch_cpus.data      3208690                       # Total bandwidth to/from this memory (bytes/s)
system.mem_ctrls1.bw_total::switch_cpus_1.inst       198940                       # Total bandwidth to/from this memory (bytes/s)
system.mem_ctrls1.bw_total::switch_cpus_1.data      4599014                       # Total bandwidth to/from this memory (bytes/s)
system.mem_ctrls1.bw_total::total             9566988                       # Total bandwidth to/from this memory (bytes/s)
system.mem_ctrls1.readReqs                     143915                       # Number of read requests accepted
system.mem_ctrls1.writeReqs                     25457                       # Number of write requests accepted
system.mem_ctrls1.readBursts                   143915                       # Number of DRAM read bursts, including those serviced by the write queue
system.mem_ctrls1.writeBursts                   25457                       # Number of DRAM write bursts, including those merged in the write queue
system.mem_ctrls1.bytesReadDRAM               9206912                       # Total number of bytes read from DRAM
system.mem_ctrls1.bytesReadWrQ                   3648                       # Total number of bytes read from write queue
system.mem_ctrls1.bytesWritten                1627264                       # Total number of bytes written to DRAM
system.mem_ctrls1.bytesReadSys                9210560                       # Total read bytes from the system interface side
system.mem_ctrls1.bytesWrittenSys             1629248                       # Total written bytes from the system interface side
system.mem_ctrls1.servicedByWrQ                    57                       # Number of DRAM read bursts serviced by the write queue
system.mem_ctrls1.mergedWrBursts                    0                       # Number of DRAM write bursts merged with an existing one
system.mem_ctrls1.neitherReadNorWriteReqs            0                       # Number of requests that are neither read nor write
system.mem_ctrls1.perBankRdBursts::0             8703                       # Per bank write bursts
system.mem_ctrls1.perBankRdBursts::1             9100                       # Per bank write bursts
system.mem_ctrls1.perBankRdBursts::2            10081                       # Per bank write bursts
system.mem_ctrls1.perBankRdBursts::3             9483                       # Per bank write bursts
system.mem_ctrls1.perBankRdBursts::4             8882                       # Per bank write bursts
system.mem_ctrls1.perBankRdBursts::5             8596                       # Per bank write bursts
system.mem_ctrls1.perBankRdBursts::6             8284                       # Per bank write bursts
system.mem_ctrls1.perBankRdBursts::7             8274                       # Per bank write bursts
system.mem_ctrls1.perBankRdBursts::8             8868                       # Per bank write bursts
system.mem_ctrls1.perBankRdBursts::9             8520                       # Per bank write bursts
system.mem_ctrls1.perBankRdBursts::10            8366                       # Per bank write bursts
system.mem_ctrls1.perBankRdBursts::11            8432                       # Per bank write bursts
system.mem_ctrls1.perBankRdBursts::12           10174                       # Per bank write bursts
system.mem_ctrls1.perBankRdBursts::13            9188                       # Per bank write bursts
system.mem_ctrls1.perBankRdBursts::14            9345                       # Per bank write bursts
system.mem_ctrls1.perBankRdBursts::15            9562                       # Per bank write bursts
system.mem_ctrls1.perBankWrBursts::0             1529                       # Per bank write bursts
system.mem_ctrls1.perBankWrBursts::1             1646                       # Per bank write bursts
system.mem_ctrls1.perBankWrBursts::2             1924                       # Per bank write bursts
system.mem_ctrls1.perBankWrBursts::3             1726                       # Per bank write bursts
system.mem_ctrls1.perBankWrBursts::4             1559                       # Per bank write bursts
system.mem_ctrls1.perBankWrBursts::5             1404                       # Per bank write bursts
system.mem_ctrls1.perBankWrBursts::6             1190                       # Per bank write bursts
system.mem_ctrls1.perBankWrBursts::7             1355                       # Per bank write bursts
system.mem_ctrls1.perBankWrBursts::8             1651                       # Per bank write bursts
system.mem_ctrls1.perBankWrBursts::9             1429                       # Per bank write bursts
system.mem_ctrls1.perBankWrBursts::10            1405                       # Per bank write bursts
system.mem_ctrls1.perBankWrBursts::11            1516                       # Per bank write bursts
system.mem_ctrls1.perBankWrBursts::12            1858                       # Per bank write bursts
system.mem_ctrls1.perBankWrBursts::13            1650                       # Per bank write bursts
system.mem_ctrls1.perBankWrBursts::14            1857                       # Per bank write bursts
system.mem_ctrls1.perBankWrBursts::15            1727                       # Per bank write bursts
system.mem_ctrls1.numRdRetry                        0                       # Number of times read queue was full causing retry
system.mem_ctrls1.numWrRetry                        0                       # Number of times write queue was full causing retry
system.mem_ctrls1.totGap                 1132999346187                       # Total gap between requests
system.mem_ctrls1.readPktSize::0                    0                       # Read request sizes (log2)
system.mem_ctrls1.readPktSize::1                    0                       # Read request sizes (log2)
system.mem_ctrls1.readPktSize::2                    0                       # Read request sizes (log2)
system.mem_ctrls1.readPktSize::3                    0                       # Read request sizes (log2)
system.mem_ctrls1.readPktSize::4                    0                       # Read request sizes (log2)
system.mem_ctrls1.readPktSize::5                    0                       # Read request sizes (log2)
system.mem_ctrls1.readPktSize::6               143915                       # Read request sizes (log2)
system.mem_ctrls1.writePktSize::0                   0                       # Write request sizes (log2)
system.mem_ctrls1.writePktSize::1                   0                       # Write request sizes (log2)
system.mem_ctrls1.writePktSize::2                   0                       # Write request sizes (log2)
system.mem_ctrls1.writePktSize::3                   0                       # Write request sizes (log2)
system.mem_ctrls1.writePktSize::4                   0                       # Write request sizes (log2)
system.mem_ctrls1.writePktSize::5                   0                       # Write request sizes (log2)
system.mem_ctrls1.writePktSize::6               25457                       # Write request sizes (log2)
system.mem_ctrls1.rdQLenPdf::0                 137821                       # What read queue length does an incoming req see
system.mem_ctrls1.rdQLenPdf::1                   5837                       # What read queue length does an incoming req see
system.mem_ctrls1.rdQLenPdf::2                    191                       # What read queue length does an incoming req see
system.mem_ctrls1.rdQLenPdf::3                      9                       # What read queue length does an incoming req see
system.mem_ctrls1.rdQLenPdf::4                      0                       # What read queue length does an incoming req see
system.mem_ctrls1.rdQLenPdf::5                      0                       # What read queue length does an incoming req see
system.mem_ctrls1.rdQLenPdf::6                      0                       # What read queue length does an incoming req see
system.mem_ctrls1.rdQLenPdf::7                      0                       # What read queue length does an incoming req see
system.mem_ctrls1.rdQLenPdf::8                      0                       # What read queue length does an incoming req see
system.mem_ctrls1.rdQLenPdf::9                      0                       # What read queue length does an incoming req see
system.mem_ctrls1.rdQLenPdf::10                     0                       # What read queue length does an incoming req see
system.mem_ctrls1.rdQLenPdf::11                     0                       # What read queue length does an incoming req see
system.mem_ctrls1.rdQLenPdf::12                     0                       # What read queue length does an incoming req see
system.mem_ctrls1.rdQLenPdf::13                     0                       # What read queue length does an incoming req see
system.mem_ctrls1.rdQLenPdf::14                     0                       # What read queue length does an incoming req see
system.mem_ctrls1.rdQLenPdf::15                     0                       # What read queue length does an incoming req see
system.mem_ctrls1.rdQLenPdf::16                     0                       # What read queue length does an incoming req see
system.mem_ctrls1.rdQLenPdf::17                     0                       # What read queue length does an incoming req see
system.mem_ctrls1.rdQLenPdf::18                     0                       # What read queue length does an incoming req see
system.mem_ctrls1.rdQLenPdf::19                     0                       # What read queue length does an incoming req see
system.mem_ctrls1.rdQLenPdf::20                     0                       # What read queue length does an incoming req see
system.mem_ctrls1.rdQLenPdf::21                     0                       # What read queue length does an incoming req see
system.mem_ctrls1.rdQLenPdf::22                     0                       # What read queue length does an incoming req see
system.mem_ctrls1.rdQLenPdf::23                     0                       # What read queue length does an incoming req see
system.mem_ctrls1.rdQLenPdf::24                     0                       # What read queue length does an incoming req see
system.mem_ctrls1.rdQLenPdf::25                     0                       # What read queue length does an incoming req see
system.mem_ctrls1.rdQLenPdf::26                     0                       # What read queue length does an incoming req see
system.mem_ctrls1.rdQLenPdf::27                     0                       # What read queue length does an incoming req see
system.mem_ctrls1.rdQLenPdf::28                     0                       # What read queue length does an incoming req see
system.mem_ctrls1.rdQLenPdf::29                     0                       # What read queue length does an incoming req see
system.mem_ctrls1.rdQLenPdf::30                     0                       # What read queue length does an incoming req see
system.mem_ctrls1.rdQLenPdf::31                     0                       # What read queue length does an incoming req see
system.mem_ctrls1.wrQLenPdf::0                      2                       # What write queue length does an incoming req see
system.mem_ctrls1.wrQLenPdf::1                      2                       # What write queue length does an incoming req see
system.mem_ctrls1.wrQLenPdf::2                      2                       # What write queue length does an incoming req see
system.mem_ctrls1.wrQLenPdf::3                      2                       # What write queue length does an incoming req see
system.mem_ctrls1.wrQLenPdf::4                      2                       # What write queue length does an incoming req see
system.mem_ctrls1.wrQLenPdf::5                      2                       # What write queue length does an incoming req see
system.mem_ctrls1.wrQLenPdf::6                      2                       # What write queue length does an incoming req see
system.mem_ctrls1.wrQLenPdf::7                      2                       # What write queue length does an incoming req see
system.mem_ctrls1.wrQLenPdf::8                      2                       # What write queue length does an incoming req see
system.mem_ctrls1.wrQLenPdf::9                      2                       # What write queue length does an incoming req see
system.mem_ctrls1.wrQLenPdf::10                     2                       # What write queue length does an incoming req see
system.mem_ctrls1.wrQLenPdf::11                     2                       # What write queue length does an incoming req see
system.mem_ctrls1.wrQLenPdf::12                     2                       # What write queue length does an incoming req see
system.mem_ctrls1.wrQLenPdf::13                     2                       # What write queue length does an incoming req see
system.mem_ctrls1.wrQLenPdf::14                     2                       # What write queue length does an incoming req see
system.mem_ctrls1.wrQLenPdf::15                   893                       # What write queue length does an incoming req see
system.mem_ctrls1.wrQLenPdf::16                   921                       # What write queue length does an incoming req see
system.mem_ctrls1.wrQLenPdf::17                  1454                       # What write queue length does an incoming req see
system.mem_ctrls1.wrQLenPdf::18                  1473                       # What write queue length does an incoming req see
system.mem_ctrls1.wrQLenPdf::19                  1476                       # What write queue length does an incoming req see
system.mem_ctrls1.wrQLenPdf::20                  1480                       # What write queue length does an incoming req see
system.mem_ctrls1.wrQLenPdf::21                  1476                       # What write queue length does an incoming req see
system.mem_ctrls1.wrQLenPdf::22                  1479                       # What write queue length does an incoming req see
system.mem_ctrls1.wrQLenPdf::23                  1478                       # What write queue length does an incoming req see
system.mem_ctrls1.wrQLenPdf::24                  1478                       # What write queue length does an incoming req see
system.mem_ctrls1.wrQLenPdf::25                  1477                       # What write queue length does an incoming req see
system.mem_ctrls1.wrQLenPdf::26                  1478                       # What write queue length does an incoming req see
system.mem_ctrls1.wrQLenPdf::27                  1476                       # What write queue length does an incoming req see
system.mem_ctrls1.wrQLenPdf::28                  1477                       # What write queue length does an incoming req see
system.mem_ctrls1.wrQLenPdf::29                  1476                       # What write queue length does an incoming req see
system.mem_ctrls1.wrQLenPdf::30                  1487                       # What write queue length does an incoming req see
system.mem_ctrls1.wrQLenPdf::31                  1473                       # What write queue length does an incoming req see
system.mem_ctrls1.wrQLenPdf::32                  1473                       # What write queue length does an incoming req see
system.mem_ctrls1.wrQLenPdf::33                     2                       # What write queue length does an incoming req see
system.mem_ctrls1.wrQLenPdf::34                     0                       # What write queue length does an incoming req see
system.mem_ctrls1.wrQLenPdf::35                     0                       # What write queue length does an incoming req see
system.mem_ctrls1.wrQLenPdf::36                     0                       # What write queue length does an incoming req see
system.mem_ctrls1.wrQLenPdf::37                     0                       # What write queue length does an incoming req see
system.mem_ctrls1.wrQLenPdf::38                     0                       # What write queue length does an incoming req see
system.mem_ctrls1.wrQLenPdf::39                     0                       # What write queue length does an incoming req see
system.mem_ctrls1.wrQLenPdf::40                     0                       # What write queue length does an incoming req see
system.mem_ctrls1.wrQLenPdf::41                     0                       # What write queue length does an incoming req see
system.mem_ctrls1.wrQLenPdf::42                     0                       # What write queue length does an incoming req see
system.mem_ctrls1.wrQLenPdf::43                     0                       # What write queue length does an incoming req see
system.mem_ctrls1.wrQLenPdf::44                     0                       # What write queue length does an incoming req see
system.mem_ctrls1.wrQLenPdf::45                     0                       # What write queue length does an incoming req see
system.mem_ctrls1.wrQLenPdf::46                     0                       # What write queue length does an incoming req see
system.mem_ctrls1.wrQLenPdf::47                     0                       # What write queue length does an incoming req see
system.mem_ctrls1.wrQLenPdf::48                     0                       # What write queue length does an incoming req see
system.mem_ctrls1.wrQLenPdf::49                     0                       # What write queue length does an incoming req see
system.mem_ctrls1.wrQLenPdf::50                     0                       # What write queue length does an incoming req see
system.mem_ctrls1.wrQLenPdf::51                     0                       # What write queue length does an incoming req see
system.mem_ctrls1.wrQLenPdf::52                     0                       # What write queue length does an incoming req see
system.mem_ctrls1.wrQLenPdf::53                     0                       # What write queue length does an incoming req see
system.mem_ctrls1.wrQLenPdf::54                     0                       # What write queue length does an incoming req see
system.mem_ctrls1.wrQLenPdf::55                     0                       # What write queue length does an incoming req see
system.mem_ctrls1.wrQLenPdf::56                     0                       # What write queue length does an incoming req see
system.mem_ctrls1.wrQLenPdf::57                     0                       # What write queue length does an incoming req see
system.mem_ctrls1.wrQLenPdf::58                     0                       # What write queue length does an incoming req see
system.mem_ctrls1.wrQLenPdf::59                     0                       # What write queue length does an incoming req see
system.mem_ctrls1.wrQLenPdf::60                     0                       # What write queue length does an incoming req see
system.mem_ctrls1.wrQLenPdf::61                     0                       # What write queue length does an incoming req see
system.mem_ctrls1.wrQLenPdf::62                     0                       # What write queue length does an incoming req see
system.mem_ctrls1.wrQLenPdf::63                     0                       # What write queue length does an incoming req see
system.mem_ctrls1.bytesPerActivate::samples        85335                       # Bytes accessed per row activation
system.mem_ctrls1.bytesPerActivate::mean   126.960520                       # Bytes accessed per row activation
system.mem_ctrls1.bytesPerActivate::gmean    93.218690                       # Bytes accessed per row activation
system.mem_ctrls1.bytesPerActivate::stdev   150.574547                       # Bytes accessed per row activation
system.mem_ctrls1.bytesPerActivate::0-127        58603     68.67%     68.67% # Bytes accessed per row activation
system.mem_ctrls1.bytesPerActivate::128-255        16734     19.61%     88.28% # Bytes accessed per row activation
system.mem_ctrls1.bytesPerActivate::256-383         4094      4.80%     93.08% # Bytes accessed per row activation
system.mem_ctrls1.bytesPerActivate::384-511         2309      2.71%     95.79% # Bytes accessed per row activation
system.mem_ctrls1.bytesPerActivate::512-639         1390      1.63%     97.42% # Bytes accessed per row activation
system.mem_ctrls1.bytesPerActivate::640-767          781      0.92%     98.33% # Bytes accessed per row activation
system.mem_ctrls1.bytesPerActivate::768-895          470      0.55%     98.88% # Bytes accessed per row activation
system.mem_ctrls1.bytesPerActivate::896-1023          263      0.31%     99.19% # Bytes accessed per row activation
system.mem_ctrls1.bytesPerActivate::1024-1151          691      0.81%    100.00% # Bytes accessed per row activation
system.mem_ctrls1.bytesPerActivate::total        85335                       # Bytes accessed per row activation
system.mem_ctrls1.rdPerTurnAround::samples         1474                       # Reads before turning the bus around for writes
system.mem_ctrls1.rdPerTurnAround::mean     97.485753                       # Reads before turning the bus around for writes
system.mem_ctrls1.rdPerTurnAround::gmean    70.260008                       # Reads before turning the bus around for writes
system.mem_ctrls1.rdPerTurnAround::stdev   721.470096                       # Reads before turning the bus around for writes
system.mem_ctrls1.rdPerTurnAround::0-1023         1473     99.93%     99.93% # Reads before turning the bus around for writes
system.mem_ctrls1.rdPerTurnAround::27648-28671            1      0.07%    100.00% # Reads before turning the bus around for writes
system.mem_ctrls1.rdPerTurnAround::total         1474                       # Reads before turning the bus around for writes
system.mem_ctrls1.wrPerTurnAround::samples         1474                       # Writes before turning the bus around for reads
system.mem_ctrls1.wrPerTurnAround::mean     17.249661                       # Writes before turning the bus around for reads
system.mem_ctrls1.wrPerTurnAround::gmean    17.219494                       # Writes before turning the bus around for reads
system.mem_ctrls1.wrPerTurnAround::stdev     1.023195                       # Writes before turning the bus around for reads
system.mem_ctrls1.wrPerTurnAround::16             556     37.72%     37.72% # Writes before turning the bus around for reads
system.mem_ctrls1.wrPerTurnAround::17              25      1.70%     39.42% # Writes before turning the bus around for reads
system.mem_ctrls1.wrPerTurnAround::18             872     59.16%     98.58% # Writes before turning the bus around for reads
system.mem_ctrls1.wrPerTurnAround::19              19      1.29%     99.86% # Writes before turning the bus around for reads
system.mem_ctrls1.wrPerTurnAround::20               1      0.07%     99.93% # Writes before turning the bus around for reads
system.mem_ctrls1.wrPerTurnAround::28               1      0.07%    100.00% # Writes before turning the bus around for reads
system.mem_ctrls1.wrPerTurnAround::total         1474                       # Writes before turning the bus around for reads
system.mem_ctrls1.totQLat                  5191054715                       # Total ticks spent queuing
system.mem_ctrls1.totMemAccLat             7888392215                       # Total ticks spent from burst creation until serviced by the DRAM
system.mem_ctrls1.totBusLat                 719290000                       # Total ticks spent in databus transfers
system.mem_ctrls1.avgQLat                    36084.57                       # Average queueing delay per DRAM burst
system.mem_ctrls1.avgBusLat                   5000.00                       # Average bus latency per DRAM burst
system.mem_ctrls1.avgMemAccLat               54834.57                       # Average memory access latency per DRAM burst
system.mem_ctrls1.avgRdBW                        8.13                       # Average DRAM read bandwidth in MiByte/s
system.mem_ctrls1.avgWrBW                        1.44                       # Average achieved write bandwidth in MiByte/s
system.mem_ctrls1.avgRdBWSys                     8.13                       # Average system read bandwidth in MiByte/s
system.mem_ctrls1.avgWrBWSys                     1.44                       # Average system write bandwidth in MiByte/s
system.mem_ctrls1.peakBW                     12800.00                       # Theoretical peak bandwidth in MiByte/s
system.mem_ctrls1.busUtil                        0.07                       # Data bus utilization in percentage
system.mem_ctrls1.busUtilRead                    0.06                       # Data bus utilization in percentage for reads
system.mem_ctrls1.busUtilWrite                   0.01                       # Data bus utilization in percentage for writes
system.mem_ctrls1.avgRdQLen                      1.01                       # Average read queue length when enqueuing
system.mem_ctrls1.avgWrQLen                     17.78                       # Average write queue length when enqueuing
system.mem_ctrls1.readRowHits                   80591                       # Number of row buffer hits during reads
system.mem_ctrls1.writeRowHits                   3358                       # Number of row buffer hits during writes
system.mem_ctrls1.readRowHitRate                56.02                       # Row buffer hit rate for reads
system.mem_ctrls1.writeRowHitRate               13.19                       # Row buffer hit rate for writes
system.mem_ctrls1.avgGap                   6689413.52                       # Average gap between requests
system.mem_ctrls1.pageHitRate                   49.58                       # Row buffer hit rate, read and write combined
system.mem_ctrls1_0.actEnergy               305720520                       # Energy for activate commands per rank (pJ)
system.mem_ctrls1_0.preEnergy               162494310                       # Energy for precharge commands per rank (pJ)
system.mem_ctrls1_0.readEnergy              509817420                       # Energy for read commands per rank (pJ)
system.mem_ctrls1_0.writeEnergy              64378260                       # Energy for write commands per rank (pJ)
system.mem_ctrls1_0.refreshEnergy        8727888000.000002                       # Energy for refresh commands per rank (pJ)
system.mem_ctrls1_0.actBackEnergy          3430496550                       # Energy for active background per rank (pJ)
system.mem_ctrls1_0.preBackEnergy           406090560                       # Energy for precharge background per rank (pJ)
system.mem_ctrls1_0.actPowerDownEnergy    25290468510                       # Energy for active power-down per rank (pJ)
system.mem_ctrls1_0.prePowerDownEnergy    10986119520                       # Energy for precharge power-down per rank (pJ)
system.mem_ctrls1_0.selfRefreshEnergy    251058896970                       # Energy for self refresh per rank (pJ)
system.mem_ctrls1_0.totalEnergy          300944678190                       # Total energy per rank (pJ)
system.mem_ctrls1_0.averagePower           265.607484                       # Core power per rank (mW)
system.mem_ctrls1_0.totalIdleTime        1124423866481                       # Total Idle time Per DRAM Rank
system.mem_ctrls1_0.memoryStateTime::IDLE    710706977                       # Time in different power states
system.mem_ctrls1_0.memoryStateTime::REF   3707066000                       # Time in different power states
system.mem_ctrls1_0.memoryStateTime::SREF 1040386017074                       # Time in different power states
system.mem_ctrls1_0.memoryStateTime::PRE_PDN  28609814870                       # Time in different power states
system.mem_ctrls1_0.memoryStateTime::ACT   4167912138                       # Time in different power states
system.mem_ctrls1_0.memoryStateTime::ACT_PDN  55461398515                       # Time in different power states
system.mem_ctrls1_1.actEnergy               303571380                       # Energy for activate commands per rank (pJ)
system.mem_ctrls1_1.preEnergy               161352015                       # Energy for precharge commands per rank (pJ)
system.mem_ctrls1_1.readEnergy              517328700                       # Energy for read commands per rank (pJ)
system.mem_ctrls1_1.writeEnergy              68345460                       # Energy for write commands per rank (pJ)
system.mem_ctrls1_1.refreshEnergy        8795498400.000002                       # Energy for refresh commands per rank (pJ)
system.mem_ctrls1_1.actBackEnergy          3498386400                       # Energy for active background per rank (pJ)
system.mem_ctrls1_1.preBackEnergy           411238080                       # Energy for precharge background per rank (pJ)
system.mem_ctrls1_1.actPowerDownEnergy    25495266660                       # Energy for active power-down per rank (pJ)
system.mem_ctrls1_1.prePowerDownEnergy    10912633920                       # Energy for precharge power-down per rank (pJ)
system.mem_ctrls1_1.selfRefreshEnergy    250991514720                       # Energy for self refresh per rank (pJ)
system.mem_ctrls1_1.totalEnergy          301158059235                       # Total energy per rank (pJ)
system.mem_ctrls1_1.averagePower           265.795810                       # Core power per rank (mW)
system.mem_ctrls1_1.totalIdleTime        1124255450396                       # Total Idle time Per DRAM Rank
system.mem_ctrls1_1.memoryStateTime::IDLE    723891402                       # Time in different power states
system.mem_ctrls1_1.memoryStateTime::REF   3735942000                       # Time in different power states
system.mem_ctrls1_1.memoryStateTime::SREF 1039964544574                       # Time in different power states
system.mem_ctrls1_1.memoryStateTime::PRE_PDN  28418186154                       # Time in different power states
system.mem_ctrls1_1.memoryStateTime::ACT   4289598805                       # Time in different power states
system.mem_ctrls1_1.memoryStateTime::ACT_PDN  55910752639                       # Time in different power states
system.pwrStateResidencyTicks::UNDEFINED 31144457076624                       # Cumulative time (in ticks) in various power states
system.cpu.branchPred.lookups                       6                       # Number of BP lookups
system.cpu.branchPred.condPredicted                 3                       # Number of conditional branches predicted
system.cpu.branchPred.condIncorrect                 3                       # Number of conditional branches incorrect
system.cpu.branchPred.BTBLookups                    3                       # Number of BTB lookups
system.cpu.branchPred.BTBHits                       0                       # Number of BTB hits
system.cpu.branchPred.BTBCorrect                    0                       # Number of correct BTB predictions (this stat may not work properly.
system.cpu.branchPred.BTBHitPct              0.000000                       # BTB Hit Percentage
system.cpu.branchPred.usedRAS                       0                       # Number of times the RAS was used to get a target.
system.cpu.branchPred.RASInCorrect                  0                       # Number of incorrect RAS predictions.
system.cpu.branchPred.indirectLookups               1                       # Number of indirect predictor lookups.
system.cpu.branchPred.indirectHits                  0                       # Number of indirect target hits.
system.cpu.branchPred.indirectMisses                1                       # Number of indirect misses.
system.cpu.branchPredindirectMispredicted            1                       # Number of mispredicted indirect branches.
system.cpu_voltage_domain.voltage                   1                       # Voltage in Volts
system.cpu_clk_domain.clock                       333                       # Clock period in ticks
system.cpu.dtb.fetch_hits                           0                       # ITB hits
system.cpu.dtb.fetch_misses                         0                       # ITB misses
system.cpu.dtb.fetch_acv                            0                       # ITB acv
system.cpu.dtb.fetch_accesses                       0                       # ITB accesses
system.cpu.dtb.read_hits                            5                       # DTB read hits
system.cpu.dtb.read_misses                          0                       # DTB read misses
system.cpu.dtb.read_acv                             0                       # DTB read access violations
system.cpu.dtb.read_accesses                        5                       # DTB read accesses
system.cpu.dtb.write_hits                           0                       # DTB write hits
system.cpu.dtb.write_misses                         0                       # DTB write misses
system.cpu.dtb.write_acv                            0                       # DTB write access violations
system.cpu.dtb.write_accesses                       0                       # DTB write accesses
system.cpu.dtb.data_hits                            5                       # DTB hits
system.cpu.dtb.data_misses                          0                       # DTB misses
system.cpu.dtb.data_acv                             0                       # DTB access violations
system.cpu.dtb.data_accesses                        5                       # DTB accesses
system.cpu.itb.fetch_hits                           7                       # ITB hits
system.cpu.itb.fetch_misses                         0                       # ITB misses
system.cpu.itb.fetch_acv                            0                       # ITB acv
system.cpu.itb.fetch_accesses                       7                       # ITB accesses
system.cpu.itb.read_hits                            0                       # DTB read hits
system.cpu.itb.read_misses                          0                       # DTB read misses
system.cpu.itb.read_acv                             0                       # DTB read access violations
system.cpu.itb.read_accesses                        0                       # DTB read accesses
system.cpu.itb.write_hits                           0                       # DTB write hits
system.cpu.itb.write_misses                         0                       # DTB write misses
system.cpu.itb.write_acv                            0                       # DTB write access violations
system.cpu.itb.write_accesses                       0                       # DTB write accesses
system.cpu.itb.data_hits                            0                       # DTB hits
system.cpu.itb.data_misses                          0                       # DTB misses
system.cpu.itb.data_acv                             0                       # DTB access violations
system.cpu.itb.data_accesses                        0                       # DTB accesses
system.cpu.workload.num_syscalls                   19                       # Number of system calls
system.cpu.pwrStateResidencyTicks::ON    1133042915574                       # Cumulative time (in ticks) in various power states
system.cpu.numCycles                              733                       # number of cpu cycles simulated
system.cpu.numWorkItemsStarted                      0                       # number of work items this cpu started
system.cpu.numWorkItemsCompleted                    0                       # number of work items this cpu completed
system.cpu.fetch.icacheStallCycles                 50                       # Number of cycles fetch is stalled on an Icache miss
system.cpu.fetch.Insts                             34                       # Number of instructions fetch has processed
system.cpu.fetch.Branches                           6                       # Number of branches that fetch encountered
system.cpu.fetch.Cycles                             5                       # Number of cycles fetch has run and was not squashing or blocked
system.cpu.fetch.SquashCycles                       9                       # Number of cycles fetch has spent squashing
system.cpu.fetch.PendingDrainCycles                 6                       # Number of cycles fetch has spent waiting on pipes to drain
system.cpu.fetch.CacheLines                         7                       # Number of cache lines fetched
system.cpu.fetch.IcacheSquashes                     4                       # Number of outstanding Icache misses that were squashed
system.cpu.fetch.rateDist::samples                 65                       # Number of instructions fetched each cycle (Total)
system.cpu.fetch.rateDist::mean              0.523077                       # Number of instructions fetched each cycle (Total)
system.cpu.fetch.rateDist::stdev             1.880057                       # Number of instructions fetched each cycle (Total)
system.cpu.fetch.rateDist::underflows               0      0.00%      0.00% # Number of instructions fetched each cycle (Total)
system.cpu.fetch.rateDist::0                       60     92.31%     92.31% # Number of instructions fetched each cycle (Total)
system.cpu.fetch.rateDist::1                        0      0.00%     92.31% # Number of instructions fetched each cycle (Total)
system.cpu.fetch.rateDist::2                        0      0.00%     92.31% # Number of instructions fetched each cycle (Total)
system.cpu.fetch.rateDist::3                        0      0.00%     92.31% # Number of instructions fetched each cycle (Total)
system.cpu.fetch.rateDist::4                        1      1.54%     93.85% # Number of instructions fetched each cycle (Total)
system.cpu.fetch.rateDist::5                        0      0.00%     93.85% # Number of instructions fetched each cycle (Total)
system.cpu.fetch.rateDist::6                        1      1.54%     95.38% # Number of instructions fetched each cycle (Total)
system.cpu.fetch.rateDist::7                        0      0.00%     95.38% # Number of instructions fetched each cycle (Total)
system.cpu.fetch.rateDist::8                        3      4.62%    100.00% # Number of instructions fetched each cycle (Total)
system.cpu.fetch.rateDist::overflows                0      0.00%    100.00% # Number of instructions fetched each cycle (Total)
system.cpu.fetch.rateDist::min_value                0                       # Number of instructions fetched each cycle (Total)
system.cpu.fetch.rateDist::max_value                8                       # Number of instructions fetched each cycle (Total)
[...]
system.switch_cpus_1.iq.int_inst_queue_wakeup_accesses    555051589                       # Number of integer instruction queue wakeup accesses
system.switch_cpus_1.iq.fp_inst_queue_reads       678395                       # Number of floating instruction queue reads
system.switch_cpus_1.iq.fp_inst_queue_writes       500844                       # Number of floating instruction queue writes
system.switch_cpus_1.iq.fp_inst_queue_wakeup_accesses       297871                       # Number of floating instruction queue wakeup accesses
system.switch_cpus_1.iq.int_alu_accesses    582746700                       # Number of integer alu accesses
system.switch_cpus_1.iq.fp_alu_accesses        349840                       # Number of floating point alu accesses
system.switch_cpus_1.iew.lsq.thread0.forwLoads     16369299                       # Number of loads that had data forwarded from stores
system.switch_cpus_1.iew.lsq.thread0.invAddrLoads            0                       # Number of loads ignored due to an invalid address
system.switch_cpus_1.iew.lsq.thread0.squashedLoads     35539807                       # Number of loads squashed
system.switch_cpus_1.iew.lsq.thread0.ignoredResponses        65236                       # Number of memory responses ignored because the instruction is squashed
system.switch_cpus_1.iew.lsq.thread0.memOrderViolation       131368                       # Number of memory ordering violations
system.switch_cpus_1.iew.lsq.thread0.squashedStores     14979443                       # Number of stores squashed
system.switch_cpus_1.iew.lsq.thread0.invAddrSwpfs            0                       # Number of software prefetches ignored due to an invalid address
system.switch_cpus_1.iew.lsq.thread0.blockedLoads            0                       # Number of blocked loads due to partial load-store forwarding
system.switch_cpus_1.iew.lsq.thread0.rescheduledLoads           87                       # Number of loads that were rescheduled
system.switch_cpus_1.iew.lsq.thread0.cacheBlocked       194800                       # Number of times an access to memory failed due to the cache being blocked
system.switch_cpus_1.iew.iewIdleCycles              0                       # Number of cycles IEW is idle
system.switch_cpus_1.iew.iewSquashCycles      3482113                       # Number of cycles IEW is squashing
system.switch_cpus_1.iew.iewBlockCycles      34191756                       # Number of cycles IEW is blocking
system.switch_cpus_1.iew.iewUnblockCycles     24184177                       # Number of cycles IEW is unblocking
system.switch_cpus_1.iew.iewDispatchedInsts    626616721                       # Number of instructions dispatched to IQ
system.switch_cpus_1.iew.iewDispSquashedInsts      1584102                       # Number of squashed instructions skipped by dispatch
system.switch_cpus_1.iew.iewDispLoadInsts    191767908                       # Number of dispatched load instructions
system.switch_cpus_1.iew.iewDispStoreInsts     83267758                       # Number of dispatched store instructions
system.switch_cpus_1.iew.iewDispNonSpecInsts       120794                       # Number of dispatched non-speculative instructions
system.switch_cpus_1.iew.iewIQFullEvents       468677                       # Number of times the IQ has become full, causing a stall
system.switch_cpus_1.iew.iewLSQFullEvents     23759890                       # Number of times the LSQ has become full, causing a stall
system.switch_cpus_1.iew.memOrderViolationEvents       131368                       # Number of memory order violations
system.switch_cpus_1.iew.predictedTakenIncorrect      1758537                       # Number of branches that were predicted taken incorrectly
system.switch_cpus_1.iew.predictedNotTakenIncorrect      1151040                       # Number of branches that were predicted not taken incorrectly
system.switch_cpus_1.iew.branchMispredicts      2909577                       # Number of branch mispredicts detected at execute
system.switch_cpus_1.iew.iewExecutedInsts    560650921                       # Number of executed instructions
system.switch_cpus_1.iew.iewExecLoadInsts    175908690                       # Number of load instructions executed
system.switch_cpus_1.iew.iewExecSquashedInsts      4615617                       # Number of squashed instructions skipped in execute
system.switch_cpus_1.iew.exec_swp                   0                       # number of swp insts executed
system.switch_cpus_1.iew.exec_nop            14406699                       # number of nop insts executed
system.switch_cpus_1.iew.exec_refs          252810111                       # number of memory reference insts executed
system.switch_cpus_1.iew.exec_branches       93496261                       # Number of branches executed
system.switch_cpus_1.iew.exec_stores         76901421                       # Number of stores executed
system.switch_cpus_1.iew.exec_rate           1.466925                       # Inst execution rate
system.switch_cpus_1.iew.wb_sent            558408255                       # cumulative count of insts sent to commit
system.switch_cpus_1.iew.wb_count           555349460                       # cumulative count of insts written-back
system.switch_cpus_1.iew.wb_producers       315793808                       # num instructions producing a value
system.switch_cpus_1.iew.wb_consumers       399058798                       # num instructions consuming a value
system.switch_cpus_1.iew.wb_rate             1.453054                       # insts written-back per cycle
system.switch_cpus_1.iew.wb_fanout           0.791347                       # average fanout of values written-back
system.switch_cpus_1.commit.commitSquashedInsts    103406863                       # The number of squashed insts skipped by commit
system.switch_cpus_1.commit.commitNonSpecStalls       183032                       # The number of times commit has been forced to stall to communicate backwards
system.switch_cpus_1.commit.branchMispredicts      2596890                       # The number of times a branch was mispredicted
system.switch_cpus_1.commit.committed_per_cycle::samples    347692230                       # Number of insts commited each cycle
system.switch_cpus_1.commit.committed_per_cycle::mean     1.470417                       # Number of insts commited each cycle
system.switch_cpus_1.commit.committed_per_cycle::stdev     2.450000                       # Number of insts commited each cycle
system.switch_cpus_1.commit.committed_per_cycle::underflows            0      0.00%      0.00% # Number of insts commited each cycle
system.switch_cpus_1.commit.committed_per_cycle::0    196378759     56.48%     56.48% # Number of insts commited each cycle
system.switch_cpus_1.commit.committed_per_cycle::1     62793785     18.06%     74.54% # Number of insts commited each cycle
system.switch_cpus_1.commit.committed_per_cycle::2     21553263      6.20%     80.74% # Number of insts commited each cycle
system.switch_cpus_1.commit.committed_per_cycle::3      9110489      2.62%     83.36% # Number of insts commited each cycle
system.switch_cpus_1.commit.committed_per_cycle::4      9037110      2.60%     85.96% # Number of insts commited each cycle
system.switch_cpus_1.commit.committed_per_cycle::5      8607901      2.48%     88.43% # Number of insts commited each cycle
system.switch_cpus_1.commit.committed_per_cycle::6      8652142      2.49%     90.92% # Number of insts commited each cycle
system.switch_cpus_1.commit.committed_per_cycle::7      5550251      1.60%     92.52% # Number of insts commited each cycle
system.switch_cpus_1.commit.committed_per_cycle::8     26008530      7.48%    100.00% # Number of insts commited each cycle
system.switch_cpus_1.commit.committed_per_cycle::overflows            0      0.00%    100.00% # Number of insts commited each cycle
system.switch_cpus_1.commit.committed_per_cycle::min_value            0                       # Number of insts commited each cycle
system.switch_cpus_1.commit.committed_per_cycle::max_value            8                       # Number of insts commited each cycle
system.switch_cpus_1.commit.committed_per_cycle::total    347692230                       # Number of insts commited each cycle
system.switch_cpus_1.commit.committedInsts    511252572                       # Number of instructions committed
system.switch_cpus_1.commit.committedOps    511252572                       # Number of ops (including micro ops) committed
system.switch_cpus_1.commit.swp_count               0                       # Number of s/w prefetches committed
system.switch_cpus_1.commit.refs            224516415                       # Number of memory references committed
system.switch_cpus_1.commit.loads           156228100                       # Number of loads committed
system.switch_cpus_1.commit.membars             91508                       # Number of memory barriers committed
system.switch_cpus_1.commit.branches         83635383                       # Number of branches committed
system.switch_cpus_1.commit.fp_insts           206962                       # Number of committed floating point instructions.
system.switch_cpus_1.commit.int_insts       491009870                       # Number of committed integer instructions.
system.switch_cpus_1.commit.function_calls      4775749                       # Number of function calls committed.
system.switch_cpus_1.commit.op_class_0::No_OpClass     11253282      2.20%      2.20% # Class of committed instruction
system.switch_cpus_1.commit.op_class_0::IntAlu    275336958     53.86%     56.06% # Class of committed instruction
system.switch_cpus_1.commit.op_class_0::IntMult         3692      0.00%     56.06% # Class of committed instruction
system.switch_cpus_1.commit.op_class_0::IntDiv            0      0.00%     56.06% # Class of committed instruction
system.switch_cpus_1.commit.op_class_0::FloatAdd        42146      0.01%     56.07% # Class of committed instruction
system.switch_cpus_1.commit.op_class_0::FloatCmp         3735      0.00%     56.07% # Class of committed instruction
system.switch_cpus_1.commit.op_class_0::FloatCvt         3823      0.00%     56.07% # Class of committed instruction
system.switch_cpus_1.commit.op_class_0::FloatMult          497      0.00%     56.07% # Class of committed instruction
system.switch_cpus_1.commit.op_class_0::FloatMultAcc            0      0.00%     56.07% # Class of committed instruction
system.switch_cpus_1.commit.op_class_0::FloatDiv          516      0.00%     56.07% # Class of committed instruction
system.switch_cpus_1.commit.op_class_0::FloatMisc            0      0.00%     56.07% # Class of committed instruction
system.switch_cpus_1.commit.op_class_0::FloatSqrt            0      0.00%     56.07% # Class of committed instruction
system.switch_cpus_1.commit.op_class_0::SimdAdd            0      0.00%     56.07% # Class of committed instruction
system.switch_cpus_1.commit.op_class_0::SimdAddAcc            0      0.00%     56.07% # Class of committed instruction
system.switch_cpus_1.commit.op_class_0::SimdAlu            0      0.00%     56.07% # Class of committed instruction
system.switch_cpus_1.commit.op_class_0::SimdCmp            0      0.00%     56.07% # Class of committed instruction
system.switch_cpus_1.commit.op_class_0::SimdCvt            0      0.00%     56.07% # Class of committed instruction
system.switch_cpus_1.commit.op_class_0::SimdMisc            0      0.00%     56.07% # Class of committed instruction
system.switch_cpus_1.commit.op_class_0::SimdMult            0      0.00%     56.07% # Class of committed instruction
system.switch_cpus_1.commit.op_class_0::SimdMultAcc            0      0.00%     56.07% # Class of committed instruction
system.switch_cpus_1.commit.op_class_0::SimdShift            0      0.00%     56.07% # Class of committed instruction
system.switch_cpus_1.commit.op_class_0::SimdShiftAcc            0      0.00%     56.07% # Class of committed instruction
system.switch_cpus_1.commit.op_class_0::SimdSqrt            0      0.00%     56.07% # Class of committed instruction
system.switch_cpus_1.commit.op_class_0::SimdFloatAdd            0      0.00%     56.07% # Class of committed instruction
system.switch_cpus_1.commit.op_class_0::SimdFloatAlu            0      0.00%     56.07% # Class of committed instruction
system.switch_cpus_1.commit.op_class_0::SimdFloatCmp            0      0.00%     56.07% # Class of committed instruction
system.switch_cpus_1.commit.op_class_0::SimdFloatCvt            0      0.00%     56.07% # Class of committed instruction
system.switch_cpus_1.commit.op_class_0::SimdFloatDiv            0      0.00%     56.07% # Class of committed instruction
system.switch_cpus_1.commit.op_class_0::SimdFloatMisc            0      0.00%     56.07% # Class of committed instruction
system.switch_cpus_1.commit.op_class_0::SimdFloatMult            0      0.00%     56.07% # Class of committed instruction
system.switch_cpus_1.commit.op_class_0::SimdFloatMultAcc            0      0.00%     56.07% # Class of committed instruction
system.switch_cpus_1.commit.op_class_0::SimdFloatSqrt            0      0.00%     56.07% # Class of committed instruction
system.switch_cpus_1.commit.op_class_0::MemRead    156253214     30.56%     86.63% # Class of committed instruction
system.switch_cpus_1.commit.op_class_0::MemWrite     68198464     13.34%     99.97% # Class of committed instruction
system.switch_cpus_1.commit.op_class_0::FloatMemRead        66394      0.01%     99.98% # Class of committed instruction
system.switch_cpus_1.commit.op_class_0::FloatMemWrite        89851      0.02%    100.00% # Class of committed instruction
system.switch_cpus_1.commit.op_class_0::IprAccess            0      0.00%    100.00% # Class of committed instruction
system.switch_cpus_1.commit.op_class_0::InstPrefetch            0      0.00%    100.00% # Class of committed instruction
system.switch_cpus_1.commit.op_class_0::total    511252572                       # Class of committed instruction
system.switch_cpus_1.commit.bw_lim_events     26008530                       # number cycles where commit BW limit reached
system.switch_cpus_1.rob.rob_reads          926163173                       # The number of ROB reads
system.switch_cpus_1.rob.rob_writes        1244613640                       # The number of ROB writes
system.switch_cpus_1.timesIdled               1682166                       # Number of times that the entire CPU went into an idle state and unscheduled itself
system.switch_cpus_1.idleCycles              19242540                       # Total number of cycles that the CPU has spent unscheduled due to idling
system.switch_cpus_1.committedInsts         500000007                       # Number of Instructions Simulated
system.switch_cpus_1.committedOps           500000007                       # Number of Ops (including micro ops) Simulated
system.switch_cpus_1.cpi                     0.764389                       # CPI: Cycles Per Instruction
system.switch_cpus_1.cpi_total               0.764389                       # CPI: Total CPI of All Threads
system.switch_cpus_1.ipc                     1.308234                       # IPC: Instructions Per Cycle
system.switch_cpus_1.ipc_total               1.308234                       # IPC: Total IPC of All Threads
system.switch_cpus_1.int_regfile_reads      720533104                       # number of integer regfile reads
system.switch_cpus_1.int_regfile_writes     392249792                       # number of integer regfile writes
system.switch_cpus_1.fp_regfile_reads          260625                       # number of floating regfile reads
system.switch_cpus_1.fp_regfile_writes         148847                       # number of floating regfile writes
system.switch_cpus_1.misc_regfile_reads        209160                       # number of misc regfile reads
system.switch_cpus_1.misc_regfile_writes       183365                       # number of misc regfile writes
system.tol3bus.snoop_filter.tot_requests      1814943                       # Total number of requests made to the snoop filter.
system.tol3bus.snoop_filter.hit_single_requests       905404                       # Number of requests hitting in the snoop filter with a single holder of the requested data.
system.tol3bus.snoop_filter.hit_multi_requests            0                       # Number of requests hitting in the snoop filter with multiple (>1) holders of the requested data.
system.tol3bus.snoop_filter.tot_snoops           1037                       # Total number of snoops made to the snoop filter.
system.tol3bus.snoop_filter.hit_single_snoops         1037                       # Number of snoops hitting in the snoop filter with a single holder of the requested data.
system.tol3bus.snoop_filter.hit_multi_snoops            0                       # Number of snoops hitting in the snoop filter with multiple (>1) holders of the requested data.
system.tol3bus.pwrStateResidencyTicks::UNDEFINED 31144457076624                       # Cumulative time (in ticks) in various power states
system.tol3bus.trans_dist::ReadResp            823501                       # Transaction distribution
system.tol3bus.trans_dist::WritebackDirty       283201                       # Transaction distribution
system.tol3bus.trans_dist::CleanEvict          844047                       # Transaction distribution
system.tol3bus.trans_dist::UpgradeReq               5                       # Transaction distribution
system.tol3bus.trans_dist::UpgradeResp              5                       # Transaction distribution
system.tol3bus.trans_dist::ReadExReq            86038                       # Transaction distribution
system.tol3bus.trans_dist::ReadExResp           86038                       # Transaction distribution
system.tol3bus.trans_dist::ReadSharedReq       823501                       # Transaction distribution
system.tol3bus.pkt_count_system.cpu.l2.mem_side::system.l3.cpu_side      2724487                       # Packet count per connected master and slave (bytes)
system.tol3bus.pkt_size_system.cpu.l2.mem_side::system.l3.cpu_side     73065472                       # Cumulative packet size per connected master and slave (bytes)
system.tol3bus.snoops                          221849                       # Total snoops (count)
system.tol3bus.snoopTraffic                   3269888                       # Total snoop traffic (bytes)
system.tol3bus.snoop_fanout::samples          1131393                       # Request fanout histogram
system.tol3bus.snoop_fanout::mean            0.000917                       # Request fanout histogram
system.tol3bus.snoop_fanout::stdev           0.030261                       # Request fanout histogram
system.tol3bus.snoop_fanout::underflows             0      0.00%      0.00% # Request fanout histogram
system.tol3bus.snoop_fanout::0                1130356     99.91%     99.91% # Request fanout histogram
system.tol3bus.snoop_fanout::1                   1037      0.09%    100.00% # Request fanout histogram
system.tol3bus.snoop_fanout::overflows              0      0.00%    100.00% # Request fanout histogram
system.tol3bus.snoop_fanout::min_value              0                       # Request fanout histogram
system.tol3bus.snoop_fanout::max_value              1                       # Request fanout histogram
system.tol3bus.snoop_fanout::total            1131393                       # Request fanout histogram
system.tol3bus.reqLayer0.occupancy          681668316                       # Layer occupancy (ticks)
system.tol3bus.reqLayer0.utilization              0.1                       # Layer utilization (%)
system.tol3bus.respLayer0.occupancy         605754639                       # Layer occupancy (ticks)
system.tol3bus.respLayer0.utilization             0.1                       # Layer utilization (%)

---------- End Simulation Statistics   ----------
