
---------- Begin Simulation Statistics ----------
sim_seconds                                  4.272619                       # Number of seconds simulated
sim_ticks                                4272618684420                       # Number of ticks simulated
final_tick                               24257720044287                       # Number of ticks from beginning of simulation (restored from checkpoints and never reset)
sim_freq                                 1000000000000                       # Frequency of simulated ticks
host_inst_rate                                 114881                       # Simulator instruction rate (inst/s)
host_op_rate                                   114881                       # Simulator op (including micro ops) rate (op/s)
host_tick_rate                              409034575                       # Simulator tick rate (ticks/s)
host_mem_usage                                2452776                       # Number of bytes of host memory used
host_seconds                                 10445.62                       # Real time elapsed on the host
sim_insts                                  1200000007                       # Number of instructions simulated
sim_ops                                    1200000007                       # Number of ops (including micro ops) simulated
system.voltage_domain.voltage                       1                       # Voltage in Volts
system.clk_domain.clock                          1000                       # Clock period in ticks
system.mem_ctrls0.pwrStateResidencyTicks::UNDEFINED 24257720044287                       # Cumulative time (in ticks) in various power states
system.mem_ctrls0.bytes_read::cpu.inst             64                       # Number of bytes read from this memory
system.mem_ctrls0.bytes_read::cpu.data             64                       # Number of bytes read from this memory
system.mem_ctrls0.bytes_read::switch_cpus.inst         1152                       # Number of bytes read from this memory
system.mem_ctrls0.bytes_read::switch_cpus.data    950024000                       # Number of bytes read from this memory
system.mem_ctrls0.bytes_read::switch_cpus_1.data    193944704                       # Number of bytes read from this memory
system.mem_ctrls0.bytes_read::total        1143969984                       # Number of bytes read from this memory
system.mem_ctrls0.bytes_inst_read::cpu.inst           64                       # Number of instructions bytes read from this memory
system.mem_ctrls0.bytes_inst_read::switch_cpus.inst         1152                       # Number of instructions bytes read from this memory
system.mem_ctrls0.bytes_inst_read::total         1216                       # Number of instructions bytes read from this memory
system.mem_ctrls0.bytes_written::writebacks    837234624                       # Number of bytes written to this memory
system.mem_ctrls0.bytes_written::total      837234624                       # Number of bytes written to this memory
system.mem_ctrls0.num_reads::cpu.inst               1                       # Number of read requests responded to by this memory
system.mem_ctrls0.num_reads::cpu.data               1                       # Number of read requests responded to by this memory
system.mem_ctrls0.num_reads::switch_cpus.inst           18                       # Number of read requests responded to by this memory
system.mem_ctrls0.num_reads::switch_cpus.data     14844125                       # Number of read requests responded to by this memory
system.mem_ctrls0.num_reads::switch_cpus_1.data      3030386                       # Number of read requests responded to by this memory
system.mem_ctrls0.num_reads::total           17874531                       # Number of read requests responded to by this memory
system.mem_ctrls0.num_writes::writebacks     13081791                       # Number of write requests responded to by this memory
system.mem_ctrls0.num_writes::total          13081791                       # Number of write requests responded to by this memory
system.mem_ctrls0.bw_read::cpu.inst                15                       # Total read bandwidth from this memory (bytes/s)
system.mem_ctrls0.bw_read::cpu.data                15                       # Total read bandwidth from this memory (bytes/s)
system.mem_ctrls0.bw_read::switch_cpus.inst          270                       # Total read bandwidth from this memory (bytes/s)
system.mem_ctrls0.bw_read::switch_cpus.data    222351693                       # Total read bandwidth from this memory (bytes/s)
system.mem_ctrls0.bw_read::switch_cpus_1.data     45392467                       # Total read bandwidth from this memory (bytes/s)
system.mem_ctrls0.bw_read::total            267744460                       # Total read bandwidth from this memory (bytes/s)
system.mem_ctrls0.bw_inst_read::cpu.inst           15                       # Instruction read bandwidth from this memory (bytes/s)
system.mem_ctrls0.bw_inst_read::switch_cpus.inst          270                       # Instruction read bandwidth from this memory (bytes/s)
system.mem_ctrls0.bw_inst_read::total             285                       # Instruction read bandwidth from this memory (bytes/s)
system.mem_ctrls0.bw_write::writebacks      195953509                       # Write bandwidth from this memory (bytes/s)
system.mem_ctrls0.bw_write::total           195953509                       # Write bandwidth from this memory (bytes/s)
system.mem_ctrls0.bw_total::writebacks      195953509                       # Total bandwidth to/from this memory (bytes/s)
system.mem_ctrls0.bw_total::cpu.inst               15                       # Total bandwidth to/from this memory (bytes/s)
system.mem_ctrls0.bw_total::cpu.data               15                       # Total bandwidth to/from this memory (bytes/s)
system.mem_ctrls0.bw_total::switch_cpus.inst          270                       # Total bandwidth to/from this memory (bytes/s)
system.mem_ctrls0.bw_total::switch_cpus.data    222351693                       # Total bandwidth to/from this memory (bytes/s)
system.mem_ctrls0.bw_total::switch_cpus_1.data     45392467                       # Total bandwidth to/from this memory (bytes/s)
system.mem_ctrls0.bw_total::total           463697969                       # Total bandwidth to/from this memory (bytes/s)
system.mem_ctrls0.readReqs                   17874532                       # Number of read requests accepted
system.mem_ctrls0.writeReqs                  13081791                       # Number of write requests accepted
system.mem_ctrls0.readBursts                 17874532                       # Number of DRAM read bursts, including those serviced by the write queue
system.mem_ctrls0.writeBursts                13081791                       # Number of DRAM write bursts, including those merged in the write queue
system.mem_ctrls0.bytesReadDRAM            1143970048                       # Total number of bytes read from DRAM
system.mem_ctrls0.bytesReadWrQ                      0                       # Total number of bytes read from write queue
system.mem_ctrls0.bytesWritten              837232960                       # Total number of bytes written to DRAM
system.mem_ctrls0.bytesReadSys             1143970048                       # Total read bytes from the system interface side
system.mem_ctrls0.bytesWrittenSys           837234624                       # Total written bytes from the system interface side
system.mem_ctrls0.servicedByWrQ                     0                       # Number of DRAM read bursts serviced by the write queue
system.mem_ctrls0.mergedWrBursts                    0                       # Number of DRAM write bursts merged with an existing one
system.mem_ctrls0.neitherReadNorWriteReqs            0                       # Number of requests that are neither read nor write
system.mem_ctrls0.perBankRdBursts::0          1117325                       # Per bank write bursts
system.mem_ctrls0.perBankRdBursts::1          1109416                       # Per bank write bursts
system.mem_ctrls0.perBankRdBursts::2          1124270                       # Per bank write bursts
system.mem_ctrls0.perBankRdBursts::3          1123016                       # Per bank write bursts
system.mem_ctrls0.perBankRdBursts::4          1122715                       # Per bank write bursts
system.mem_ctrls0.perBankRdBursts::5          1115012                       # Per bank write bursts
system.mem_ctrls0.perBankRdBursts::6          1119358                       # Per bank write bursts
system.mem_ctrls0.perBankRdBursts::7          1131155                       # Per bank write bursts
system.mem_ctrls0.perBankRdBursts::8          1124525                       # Per bank write bursts
system.mem_ctrls0.perBankRdBursts::9          1118017                       # Per bank write bursts
system.mem_ctrls0.perBankRdBursts::10         1111453                       # Per bank write bursts
system.mem_ctrls0.perBankRdBursts::11         1107544                       # Per bank write bursts
system.mem_ctrls0.perBankRdBursts::12         1105028                       # Per bank write bursts
system.mem_ctrls0.perBankRdBursts::13         1117166                       # Per bank write bursts
system.mem_ctrls0.perBankRdBursts::14         1110381                       # Per bank write bursts
system.mem_ctrls0.perBankRdBursts::15         1118151                       # Per bank write bursts
system.mem_ctrls0.perBankWrBursts::0           818166                       # Per bank write bursts
system.mem_ctrls0.perBankWrBursts::1           810161                       # Per bank write bursts
system.mem_ctrls0.perBankWrBursts::2           824891                       # Per bank write bursts
system.mem_ctrls0.perBankWrBursts::3           823523                       # Per bank write bursts
system.mem_ctrls0.perBankWrBursts::4           823173                       # Per bank write bursts
system.mem_ctrls0.perBankWrBursts::5           815244                       # Per bank write bursts
system.mem_ctrls0.perBankWrBursts::6           819514                       # Per bank write bursts
system.mem_ctrls0.perBankWrBursts::7           831290                       # Per bank write bursts
system.mem_ctrls0.perBankWrBursts::8           824612                       # Per bank write bursts
system.mem_ctrls0.perBankWrBursts::9           818144                       # Per bank write bursts
system.mem_ctrls0.perBankWrBursts::10          811743                       # Per bank write bursts
system.mem_ctrls0.perBankWrBursts::11          807943                       # Per bank write bursts
system.mem_ctrls0.perBankWrBursts::12          805254                       # Per bank write bursts
system.mem_ctrls0.perBankWrBursts::13          817936                       # Per bank write bursts
system.mem_ctrls0.perBankWrBursts::14          811153                       # Per bank write bursts
system.mem_ctrls0.perBankWrBursts::15          819018                       # Per bank write bursts
system.mem_ctrls0.numRdRetry                        0                       # Number of times read queue was full causing retry
system.mem_ctrls0.numWrRetry                        0                       # Number of times write queue was full causing retry
system.mem_ctrls0.totGap                 4272618562875                       # Total gap between requests
system.mem_ctrls0.readPktSize::0                    0                       # Read request sizes (log2)
system.mem_ctrls0.readPktSize::1                    0                       # Read request sizes (log2)
system.mem_ctrls0.readPktSize::2                    0                       # Read request sizes (log2)
system.mem_ctrls0.readPktSize::3                    0                       # Read request sizes (log2)
system.mem_ctrls0.readPktSize::4                    0                       # Read request sizes (log2)
system.mem_ctrls0.readPktSize::5                    0                       # Read request sizes (log2)
system.mem_ctrls0.readPktSize::6             17874532                       # Read request sizes (log2)
system.mem_ctrls0.writePktSize::0                   0                       # Write request sizes (log2)
system.mem_ctrls0.writePktSize::1                   0                       # Write request sizes (log2)
system.mem_ctrls0.writePktSize::2                   0                       # Write request sizes (log2)
system.mem_ctrls0.writePktSize::3                   0                       # Write request sizes (log2)
system.mem_ctrls0.writePktSize::4                   0                       # Write request sizes (log2)
system.mem_ctrls0.writePktSize::5                   0                       # Write request sizes (log2)
system.mem_ctrls0.writePktSize::6            13081791                       # Write request sizes (log2)
system.mem_ctrls0.rdQLenPdf::0               16580647                       # What read queue length does an incoming req see
system.mem_ctrls0.rdQLenPdf::1                 983985                       # What read queue length does an incoming req see
system.mem_ctrls0.rdQLenPdf::2                 288913                       # What read queue length does an incoming req see
system.mem_ctrls0.rdQLenPdf::3                  20987                       # What read queue length does an incoming req see
system.mem_ctrls0.rdQLenPdf::4                      0                       # What read queue length does an incoming req see
system.mem_ctrls0.rdQLenPdf::5                      0                       # What read queue length does an incoming req see
system.mem_ctrls0.rdQLenPdf::6                      0                       # What read queue length does an incoming req see
system.mem_ctrls0.rdQLenPdf::7                      0                       # What read queue length does an incoming req see
system.mem_ctrls0.rdQLenPdf::8                      0                       # What read queue length does an incoming req see
system.mem_ctrls0.rdQLenPdf::9                      0                       # What read queue length does an incoming req see
system.mem_ctrls0.rdQLenPdf::10                     0                       # What read queue length does an incoming req see
system.mem_ctrls0.rdQLenPdf::11                     0                       # What read queue length does an incoming req see
system.mem_ctrls0.rdQLenPdf::12                     0                       # What read queue length does an incoming req see
system.mem_ctrls0.rdQLenPdf::13                     0                       # What read queue length does an incoming req see
system.mem_ctrls0.rdQLenPdf::14                     0                       # What read queue length does an incoming req see
system.mem_ctrls0.rdQLenPdf::15                     0                       # What read queue length does an incoming req see
system.mem_ctrls0.rdQLenPdf::16                     0                       # What read queue length does an incoming req see
system.mem_ctrls0.rdQLenPdf::17                     0                       # What read queue length does an incoming req see
system.mem_ctrls0.rdQLenPdf::18                     0                       # What read queue length does an incoming req see
system.mem_ctrls0.rdQLenPdf::19                     0                       # What read queue length does an incoming req see
system.mem_ctrls0.rdQLenPdf::20                     0                       # What read queue length does an incoming req see
system.mem_ctrls0.rdQLenPdf::21                     0                       # What read queue length does an incoming req see
system.mem_ctrls0.rdQLenPdf::22                     0                       # What read queue length does an incoming req see
system.mem_ctrls0.rdQLenPdf::23                     0                       # What read queue length does an incoming req see
system.mem_ctrls0.rdQLenPdf::24                     0                       # What read queue length does an incoming req see
system.mem_ctrls0.rdQLenPdf::25                     0                       # What read queue length does an incoming req see
system.mem_ctrls0.rdQLenPdf::26                     0                       # What read queue length does an incoming req see
system.mem_ctrls0.rdQLenPdf::27                     0                       # What read queue length does an incoming req see
system.mem_ctrls0.rdQLenPdf::28                     0                       # What read queue length does an incoming req see
system.mem_ctrls0.rdQLenPdf::29                     0                       # What read queue length does an incoming req see
system.mem_ctrls0.rdQLenPdf::30                     0                       # What read queue length does an incoming req see
system.mem_ctrls0.rdQLenPdf::31                     0                       # What read queue length does an incoming req see
system.mem_ctrls0.wrQLenPdf::0                      2                       # What write queue length does an incoming req see
system.mem_ctrls0.wrQLenPdf::1                      2                       # What write queue length does an incoming req see
system.mem_ctrls0.wrQLenPdf::2                      2                       # What write queue length does an incoming req see
system.mem_ctrls0.wrQLenPdf::3                      2                       # What write queue length does an incoming req see
system.mem_ctrls0.wrQLenPdf::4                      2                       # What write queue length does an incoming req see
system.mem_ctrls0.wrQLenPdf::5                      2                       # What write queue length does an incoming req see
system.mem_ctrls0.wrQLenPdf::6                      2                       # What write queue length does an incoming req see
system.mem_ctrls0.wrQLenPdf::7                      2                       # What write queue length does an incoming req see
system.mem_ctrls0.wrQLenPdf::8                      2                       # What write queue length does an incoming req see
system.mem_ctrls0.wrQLenPdf::9                      2                       # What write queue length does an incoming req see
system.mem_ctrls0.wrQLenPdf::10                     2                       # What write queue length does an incoming req see
system.mem_ctrls0.wrQLenPdf::11                     2                       # What write queue length does an incoming req see
system.mem_ctrls0.wrQLenPdf::12                     2                       # What write queue length does an incoming req see
system.mem_ctrls0.wrQLenPdf::13                     2                       # What write queue length does an incoming req see
system.mem_ctrls0.wrQLenPdf::14                     2                       # What write queue length does an incoming req see
system.mem_ctrls0.wrQLenPdf::15                356973                       # What write queue length does an incoming req see
system.mem_ctrls0.wrQLenPdf::16                369048                       # What write queue length does an incoming req see
system.mem_ctrls0.wrQLenPdf::17                688364                       # What write queue length does an incoming req see
system.mem_ctrls0.wrQLenPdf::18                757404                       # What write queue length does an incoming req see
system.mem_ctrls0.wrQLenPdf::19                773363                       # What write queue length does an incoming req see
system.mem_ctrls0.wrQLenPdf::20                775706                       # What write queue length does an incoming req see
system.mem_ctrls0.wrQLenPdf::21                775423                       # What write queue length does an incoming req see
system.mem_ctrls0.wrQLenPdf::22                775062                       # What write queue length does an incoming req see
system.mem_ctrls0.wrQLenPdf::23                775879                       # What write queue length does an incoming req see
system.mem_ctrls0.wrQLenPdf::24                777621                       # What write queue length does an incoming req see
system.mem_ctrls0.wrQLenPdf::25                779304                       # What write queue length does an incoming req see
system.mem_ctrls0.wrQLenPdf::26                780002                       # What write queue length does an incoming req see
system.mem_ctrls0.wrQLenPdf::27                801305                       # What write queue length does an incoming req see
system.mem_ctrls0.wrQLenPdf::28                792594                       # What write queue length does an incoming req see
system.mem_ctrls0.wrQLenPdf::29                788205                       # What write queue length does an incoming req see
system.mem_ctrls0.wrQLenPdf::30                774986                       # What write queue length does an incoming req see
system.mem_ctrls0.wrQLenPdf::31                769075                       # What write queue length does an incoming req see
system.mem_ctrls0.wrQLenPdf::32                768727                       # What write queue length does an incoming req see
system.mem_ctrls0.wrQLenPdf::33                  1999                       # What write queue length does an incoming req see
system.mem_ctrls0.wrQLenPdf::34                   521                       # What write queue length does an incoming req see
system.mem_ctrls0.wrQLenPdf::35                   150                       # What write queue length does an incoming req see
system.mem_ctrls0.wrQLenPdf::36                    37                       # What write queue length does an incoming req see
system.mem_ctrls0.wrQLenPdf::37                     8                       # What write queue length does an incoming req see
system.mem_ctrls0.wrQLenPdf::38                     4                       # What write queue length does an incoming req see
system.mem_ctrls0.wrQLenPdf::39                     1                       # What write queue length does an incoming req see
system.mem_ctrls0.wrQLenPdf::40                     0                       # What write queue length does an incoming req see
system.mem_ctrls0.wrQLenPdf::41                     0                       # What write queue length does an incoming req see
system.mem_ctrls0.wrQLenPdf::42                     0                       # What write queue length does an incoming req see
system.mem_ctrls0.wrQLenPdf::43                     0                       # What write queue length does an incoming req see
system.mem_ctrls0.wrQLenPdf::44                     0                       # What write queue length does an incoming req see
system.mem_ctrls0.wrQLenPdf::45                     0                       # What write queue length does an incoming req see
system.mem_ctrls0.wrQLenPdf::46                     0                       # What write queue length does an incoming req see
system.mem_ctrls0.wrQLenPdf::47                     0                       # What write queue length does an incoming req see
system.mem_ctrls0.wrQLenPdf::48                     0                       # What write queue length does an incoming req see
system.mem_ctrls0.wrQLenPdf::49                     0                       # What write queue length does an incoming req see
system.mem_ctrls0.wrQLenPdf::50                     0                       # What write queue length does an incoming req see
system.mem_ctrls0.wrQLenPdf::51                     0                       # What write queue length does an incoming req see
system.mem_ctrls0.wrQLenPdf::52                     0                       # What write queue length does an incoming req see
system.mem_ctrls0.wrQLenPdf::53                     0                       # What write queue length does an incoming req see
system.mem_ctrls0.wrQLenPdf::54                     0                       # What write queue length does an incoming req see
system.mem_ctrls0.wrQLenPdf::55                     0                       # What write queue length does an incoming req see
system.mem_ctrls0.wrQLenPdf::56                     0                       # What write queue length does an incoming req see
system.mem_ctrls0.wrQLenPdf::57                     0                       # What write queue length does an incoming req see
system.mem_ctrls0.wrQLenPdf::58                     0                       # What write queue length does an incoming req see
system.mem_ctrls0.wrQLenPdf::59                     0                       # What write queue length does an incoming req see
system.mem_ctrls0.wrQLenPdf::60                     0                       # What write queue length does an incoming req see
system.mem_ctrls0.wrQLenPdf::61                     0                       # What write queue length does an incoming req see
system.mem_ctrls0.wrQLenPdf::62                     0                       # What write queue length does an incoming req see
system.mem_ctrls0.wrQLenPdf::63                     0                       # What write queue length does an incoming req see
system.mem_ctrls0.bytesPerActivate::samples     13766182                       # Bytes accessed per row activation
system.mem_ctrls0.bytesPerActivate::mean   143.918044                       # Bytes accessed per row activation
system.mem_ctrls0.bytesPerActivate::gmean   117.103040                       # Bytes accessed per row activation
system.mem_ctrls0.bytesPerActivate::stdev   108.048674                       # Bytes accessed per row activation
system.mem_ctrls0.bytesPerActivate::0-127      5910135     42.93%     42.93% # Bytes accessed per row activation
system.mem_ctrls0.bytesPerActivate::128-255      5634816     40.93%     83.86% # Bytes accessed per row activation
system.mem_ctrls0.bytesPerActivate::256-383      1536909     11.16%     95.03% # Bytes accessed per row activation
system.mem_ctrls0.bytesPerActivate::384-511       452806      3.29%     98.32% # Bytes accessed per row activation
system.mem_ctrls0.bytesPerActivate::512-639       133906      0.97%     99.29% # Bytes accessed per row activation
system.mem_ctrls0.bytesPerActivate::640-767        54880      0.40%     99.69% # Bytes accessed per row activation
system.mem_ctrls0.bytesPerActivate::768-895        26733      0.19%     99.88% # Bytes accessed per row activation
system.mem_ctrls0.bytesPerActivate::896-1023         9102      0.07%     99.95% # Bytes accessed per row activation
system.mem_ctrls0.bytesPerActivate::1024-1151         6895      0.05%    100.00% # Bytes accessed per row activation
system.mem_ctrls0.bytesPerActivate::total     13766182                       # Bytes accessed per row activation
system.mem_ctrls0.rdPerTurnAround::samples       768100                       # Reads before turning the bus around for writes
system.mem_ctrls0.rdPerTurnAround::mean     23.271084                       # Reads before turning the bus around for writes
system.mem_ctrls0.rdPerTurnAround::gmean    22.692805                       # Reads before turning the bus around for writes
system.mem_ctrls0.rdPerTurnAround::stdev    37.935228                       # Reads before turning the bus around for writes
system.mem_ctrls0.rdPerTurnAround::0-2047       768099    100.00%    100.00% # Reads before turning the bus around for writes
system.mem_ctrls0.rdPerTurnAround::32768-34815            1      0.00%    100.00% # Reads before turning the bus around for writes
system.mem_ctrls0.rdPerTurnAround::total       768100                       # Reads before turning the bus around for writes
system.mem_ctrls0.wrPerTurnAround::samples       768100                       # Writes before turning the bus around for reads
system.mem_ctrls0.wrPerTurnAround::mean     17.031331                       # Writes before turning the bus around for reads
system.mem_ctrls0.wrPerTurnAround::gmean    16.994759                       # Writes before turning the bus around for reads
system.mem_ctrls0.wrPerTurnAround::stdev     1.124992                       # Writes before turning the bus around for reads
system.mem_ctrls0.wrPerTurnAround::16          400036     52.08%     52.08% # Writes before turning the bus around for reads
system.mem_ctrls0.wrPerTurnAround::17            7091      0.92%     53.00% # Writes before turning the bus around for reads
system.mem_ctrls0.wrPerTurnAround::18          307406     40.02%     93.03% # Writes before turning the bus around for reads
system.mem_ctrls0.wrPerTurnAround::19           45336      5.90%     98.93% # Writes before turning the bus around for reads
system.mem_ctrls0.wrPerTurnAround::20            7159      0.93%     99.86% # Writes before turning the bus around for reads
system.mem_ctrls0.wrPerTurnAround::21             868      0.11%     99.97% # Writes before turning the bus around for reads
system.mem_ctrls0.wrPerTurnAround::22             166      0.02%    100.00% # Writes before turning the bus around for reads
system.mem_ctrls0.wrPerTurnAround::23              31      0.00%    100.00% # Writes before turning the bus around for reads
system.mem_ctrls0.wrPerTurnAround::24               3      0.00%    100.00% # Writes before turning the bus around for reads
system.mem_ctrls0.wrPerTurnAround::25               1      0.00%    100.00% # Writes before turning the bus around for reads
system.mem_ctrls0.wrPerTurnAround::26               2      0.00%    100.00% # Writes before turning the bus around for reads
system.mem_ctrls0.wrPerTurnAround::28               1      0.00%    100.00% # Writes before turning the bus around for reads
system.mem_ctrls0.wrPerTurnAround::total       768100                       # Writes before turning the bus around for reads
system.mem_ctrls0.totQLat                444175671550                       # Total ticks spent queuing
system.mem_ctrls0.totMemAccLat           779323146550                       # Total ticks spent from burst creation until serviced by the DRAM
system.mem_ctrls0.totBusLat               89372660000                       # Total ticks spent in databus transfers
system.mem_ctrls0.avgQLat                    24849.64                       # Average queueing delay per DRAM burst
system.mem_ctrls0.avgBusLat                   5000.00                       # Average bus latency per DRAM burst
system.mem_ctrls0.avgMemAccLat               43599.64                       # Average memory access latency per DRAM burst
system.mem_ctrls0.avgRdBW                      267.74                       # Average DRAM read bandwidth in MiByte/s
system.mem_ctrls0.avgWrBW                      195.95                       # Average achieved write bandwidth in MiByte/s
system.mem_ctrls0.avgRdBWSys                   267.74                       # Average system read bandwidth in MiByte/s
system.mem_ctrls0.avgWrBWSys                   195.95                       # Average system write bandwidth in MiByte/s
system.mem_ctrls0.peakBW                     12800.00                       # Theoretical peak bandwidth in MiByte/s
system.mem_ctrls0.busUtil                        3.62                       # Data bus utilization in percentage
system.mem_ctrls0.busUtilRead                    2.09                       # Data bus utilization in percentage for reads
system.mem_ctrls0.busUtilWrite                   1.53                       # Data bus utilization in percentage for writes
system.mem_ctrls0.avgRdQLen                      1.03                       # Average read queue length when enqueuing
system.mem_ctrls0.avgWrQLen                     25.00                       # Average write queue length when enqueuing
system.mem_ctrls0.readRowHits                 8794697                       # Number of row buffer hits during reads
system.mem_ctrls0.writeRowHits                8395411                       # Number of row buffer hits during writes
system.mem_ctrls0.readRowHitRate                49.20                       # Row buffer hit rate for reads
system.mem_ctrls0.writeRowHitRate               64.18                       # Row buffer hit rate for writes
system.mem_ctrls0.avgGap                    138020.87                       # Average gap between requests
system.mem_ctrls0.pageHitRate                   55.53                       # Row buffer hit rate, read and write combined
system.mem_ctrls0_0.actEnergy             49279030500                       # Energy for activate commands per rank (pJ)
system.mem_ctrls0_0.preEnergy             26192425875                       # Energy for precharge commands per rank (pJ)
system.mem_ctrls0_0.readEnergy            63990586380                       # Energy for read commands per rank (pJ)
system.mem_ctrls0_0.writeEnergy           34274321640                       # Energy for write commands per rank (pJ)
system.mem_ctrls0_0.refreshEnergy        342283796400.000061                       # Energy for refresh commands per rank (pJ)
system.mem_ctrls0_0.actBackEnergy        495018491580                       # Energy for active background per rank (pJ)
system.mem_ctrls0_0.preBackEnergy         13575606720                       # Energy for precharge background per rank (pJ)
system.mem_ctrls0_0.actPowerDownEnergy   1168444269390                       # Energy for active power-down per rank (pJ)
system.mem_ctrls0_0.prePowerDownEnergy   209942465760                       # Energy for precharge power-down per rank (pJ)
system.mem_ctrls0_0.selfRefreshEnergy     18317232000                       # Energy for self refresh per rank (pJ)
system.mem_ctrls0_0.totalEnergy          2421394611735                       # Total energy per rank (pJ)
system.mem_ctrls0_0.averagePower           566.723772                       # Core power per rank (mW)
system.mem_ctrls0_0.totalIdleTime        3151530875392                       # Total Idle time Per DRAM Rank
system.mem_ctrls0_0.memoryStateTime::IDLE  18178479045                       # Time in different power states
system.mem_ctrls0_0.memoryStateTime::REF 144883250000                       # Time in different power states
system.mem_ctrls0_0.memoryStateTime::SREF  42425886803                       # Time in different power states
system.mem_ctrls0_0.memoryStateTime::PRE_PDN 546724490196                       # Time in different power states
system.mem_ctrls0_0.memoryStateTime::ACT 958025737366                       # Time in different power states
system.mem_ctrls0_0.memoryStateTime::ACT_PDN 2562380841010                       # Time in different power states
system.mem_ctrls0_1.actEnergy             49011551820                       # Energy for activate commands per rank (pJ)
system.mem_ctrls0_1.preEnergy             26050234815                       # Energy for precharge commands per rank (pJ)
system.mem_ctrls0_1.readEnergy            63633564960                       # Energy for read commands per rank (pJ)
system.mem_ctrls0_1.writeEnergy           34012491660                       # Energy for write commands per rank (pJ)
system.mem_ctrls0_1.refreshEnergy        342676551360.000061                       # Energy for refresh commands per rank (pJ)
system.mem_ctrls0_1.actBackEnergy        492319639620                       # Energy for active background per rank (pJ)
system.mem_ctrls0_1.preBackEnergy         13842406080                       # Energy for precharge background per rank (pJ)
system.mem_ctrls0_1.actPowerDownEnergy   1164621756480                       # Energy for active power-down per rank (pJ)
system.mem_ctrls0_1.prePowerDownEnergy   213727014240                       # Energy for precharge power-down per rank (pJ)
system.mem_ctrls0_1.selfRefreshEnergy     19887055995                       # Energy for self refresh per rank (pJ)
system.mem_ctrls0_1.totalEnergy          2419878063810                       # Total energy per rank (pJ)
system.mem_ctrls0_1.averagePower           566.368824                       # Core power per rank (mW)
system.mem_ctrls0_1.totalIdleTime        3156714182792                       # Total Idle time Per DRAM Rank
system.mem_ctrls0_1.memoryStateTime::IDLE  18950192634                       # Time in different power states
system.mem_ctrls0_1.memoryStateTime::REF 145057202000                       # Time in different power states
system.mem_ctrls0_1.memoryStateTime::SREF  46133524257                       # Time in different power states
system.mem_ctrls0_1.memoryStateTime::PRE_PDN 556580378956                       # Time in different power states
system.mem_ctrls0_1.memoryStateTime::ACT 951897106994                       # Time in different power states
system.mem_ctrls0_1.memoryStateTime::ACT_PDN 2554000279579                       # Time in different power states
system.mem_ctrls1.pwrStateResidencyTicks::UNDEFINED 24257720044287                       # Cumulative time (in ticks) in various power states
system.mem_ctrls1.bytes_read::cpu.inst            128                       # Number of bytes read from this memory
system.mem_ctrls1.bytes_read::cpu.data            128                       # Number of bytes read from this memory
system.mem_ctrls1.bytes_read::switch_cpus.inst          896                       # Number of bytes read from this memory
system.mem_ctrls1.bytes_read::switch_cpus.data    950023616                       # Number of bytes read from this memory
system.mem_ctrls1.bytes_read::switch_cpus_1.data    193927104                       # Number of bytes read from this memory
system.mem_ctrls1.bytes_read::total        1143951872                       # Number of bytes read from this memory
system.mem_ctrls1.bytes_inst_read::cpu.inst          128                       # Number of instructions bytes read from this memory
system.mem_ctrls1.bytes_inst_read::switch_cpus.inst          896                       # Number of instructions bytes read from this memory
system.mem_ctrls1.bytes_inst_read::total         1024                       # Number of instructions bytes read from this memory
system.mem_ctrls1.bytes_written::writebacks    837234944                       # Number of bytes written to this memory
system.mem_ctrls1.bytes_written::total      837234944                       # Number of bytes written to this memory
system.mem_ctrls1.num_reads::cpu.inst               2                       # Number of read requests responded to by this memory
system.mem_ctrls1.num_reads::cpu.data               2                       # Number of read requests responded to by this memory
system.mem_ctrls1.num_reads::switch_cpus.inst           14                       # Number of read requests responded to by this memory
system.mem_ctrls1.num_reads::switch_cpus.data     14844119                       # Number of read requests responded to by this memory
system.mem_ctrls1.num_reads::switch_cpus_1.data      3030111                       # Number of read requests responded to by this memory
system.mem_ctrls1.num_reads::total           17874248                       # Number of read requests responded to by this memory
system.mem_ctrls1.num_writes::writebacks     13081796                       # Number of write requests responded to by this memory
system.mem_ctrls1.num_writes::total          13081796                       # Number of write requests responded to by this memory
system.mem_ctrls1.bw_read::cpu.inst                30                       # Total read bandwidth from this memory (bytes/s)
system.mem_ctrls1.bw_read::cpu.data                30                       # Total read bandwidth from this memory (bytes/s)
system.mem_ctrls1.bw_read::switch_cpus.inst          210                       # Total read bandwidth from this memory (bytes/s)
system.mem_ctrls1.bw_read::switch_cpus.data    222351604                       # Total read bandwidth from this memory (bytes/s)
system.mem_ctrls1.bw_read::switch_cpus_1.data     45388348                       # Total read bandwidth from this memory (bytes/s)
system.mem_ctrls1.bw_read::total            267740221                       # Total read bandwidth from this memory (bytes/s)
system.mem_ctrls1.bw_inst_read::cpu.inst           30                       # Instruction read bandwidth from this memory (bytes/s)
system.mem_ctrls1.bw_inst_read::switch_cpus.inst          210                       # Instruction read bandwidth from this memory (bytes/s)
system.mem_ctrls1.bw_inst_read::total             240                       # Instruction read bandwidth from this memory (bytes/s)
system.mem_ctrls1.bw_write::writebacks      195953584                       # Write bandwidth from this memory (bytes/s)
system.mem_ctrls1.bw_write::total           195953584                       # Write bandwidth from this memory (bytes/s)
system.mem_ctrls1.bw_total::writebacks      195953584                       # Total bandwidth to/from this memory (bytes/s)
system.mem_ctrls1.bw_total::cpu.inst               30                       # Total bandwidth to/from this memory (bytes/s)
system.mem_ctrls1.bw_total::cpu.data               30                       # Total bandwidth to/from this memory (bytes/s)
system.mem_ctrls1.bw_total::switch_cpus.inst          210                       # Total bandwidth to/from this memory (bytes/s)
system.mem_ctrls1.bw_total::switch_cpus.data    222351604                       # Total bandwidth to/from this memory (bytes/s)
system.mem_ctrls1.bw_total::switch_cpus_1.data     45388348                       # Total bandwidth to/from this memory (bytes/s)
system.mem_ctrls1.bw_total::total           463693805                       # Total bandwidth to/from this memory (bytes/s)
system.mem_ctrls1.readReqs                   17874248                       # Number of read requests accepted
system.mem_ctrls1.writeReqs                  13081796                       # Number of write requests accepted
system.mem_ctrls1.readBursts                 17874248                       # Number of DRAM read bursts, including those serviced by the write queue
system.mem_ctrls1.writeBursts                13081796                       # Number of DRAM write bursts, including those merged in the write queue
system.mem_ctrls1.bytesReadDRAM            1143951872                       # Total number of bytes read from DRAM
system.mem_ctrls1.bytesReadWrQ                      0                       # Total number of bytes read from write queue
system.mem_ctrls1.bytesWritten              837233216                       # Total number of bytes written to DRAM
system.mem_ctrls1.bytesReadSys             1143951872                       # Total read bytes from the system interface side
system.mem_ctrls1.bytesWrittenSys           837234944                       # Total written bytes from the system interface side
system.mem_ctrls1.servicedByWrQ                     0                       # Number of DRAM read bursts serviced by the write queue
system.mem_ctrls1.mergedWrBursts                    0                       # Number of DRAM write bursts merged with an existing one
system.mem_ctrls1.neitherReadNorWriteReqs            0                       # Number of requests that are neither read nor write
system.mem_ctrls1.perBankRdBursts::0          1117360                       # Per bank write bursts
system.mem_ctrls1.perBankRdBursts::1          1109450                       # Per bank write bursts
system.mem_ctrls1.perBankRdBursts::2          1124242                       # Per bank write bursts
system.mem_ctrls1.perBankRdBursts::3          1123063                       # Per bank write bursts
system.mem_ctrls1.perBankRdBursts::4          1122675                       # Per bank write bursts
system.mem_ctrls1.perBankRdBursts::5          1114987                       # Per bank write bursts
system.mem_ctrls1.perBankRdBursts::6          1119342                       # Per bank write bursts
system.mem_ctrls1.perBankRdBursts::7          1131166                       # Per bank write bursts
system.mem_ctrls1.perBankRdBursts::8          1124649                       # Per bank write bursts
system.mem_ctrls1.perBankRdBursts::9          1117906                       # Per bank write bursts
system.mem_ctrls1.perBankRdBursts::10         1111377                       # Per bank write bursts
system.mem_ctrls1.perBankRdBursts::11         1107626                       # Per bank write bursts
system.mem_ctrls1.perBankRdBursts::12         1104834                       # Per bank write bursts
system.mem_ctrls1.perBankRdBursts::13         1117222                       # Per bank write bursts
system.mem_ctrls1.perBankRdBursts::14         1110409                       # Per bank write bursts
system.mem_ctrls1.perBankRdBursts::15         1117940                       # Per bank write bursts
system.mem_ctrls1.perBankWrBursts::0           818188                       # Per bank write bursts
system.mem_ctrls1.perBankWrBursts::1           810208                       # Per bank write bursts
system.mem_ctrls1.perBankWrBursts::2           824874                       # Per bank write bursts
system.mem_ctrls1.perBankWrBursts::3           823592                       # Per bank write bursts
system.mem_ctrls1.perBankWrBursts::4           823119                       # Per bank write bursts
system.mem_ctrls1.perBankWrBursts::5           815218                       # Per bank write bursts
system.mem_ctrls1.perBankWrBursts::6           819498                       # Per bank write bursts
system.mem_ctrls1.perBankWrBursts::7           831304                       # Per bank write bursts
system.mem_ctrls1.perBankWrBursts::8           824759                       # Per bank write bursts
system.mem_ctrls1.perBankWrBursts::9           818028                       # Per bank write bursts
system.mem_ctrls1.perBankWrBursts::10          811659                       # Per bank write bursts
system.mem_ctrls1.perBankWrBursts::11          808041                       # Per bank write bursts
system.mem_ctrls1.perBankWrBursts::12          805287                       # Per bank write bursts
system.mem_ctrls1.perBankWrBursts::13          817991                       # Per bank write bursts
system.mem_ctrls1.perBankWrBursts::14          811188                       # Per bank write bursts
system.mem_ctrls1.perBankWrBursts::15          818815                       # Per bank write bursts
system.mem_ctrls1.numRdRetry                        0                       # Number of times read queue was full causing retry
system.mem_ctrls1.numWrRetry                        0                       # Number of times write queue was full causing retry
system.mem_ctrls1.totGap                 4272618648123                       # Total gap between requests
system.mem_ctrls1.readPktSize::0                    0                       # Read request sizes (log2)
system.mem_ctrls1.readPktSize::1                    0                       # Read request sizes (log2)
system.mem_ctrls1.readPktSize::2                    0                       # Read request sizes (log2)
system.mem_ctrls1.readPktSize::3                    0                       # Read request sizes (log2)
system.mem_ctrls1.readPktSize::4                    0                       # Read request sizes (log2)
system.mem_ctrls1.readPktSize::5                    0                       # Read request sizes (log2)
system.mem_ctrls1.readPktSize::6             17874248                       # Read request sizes (log2)
system.mem_ctrls1.writePktSize::0                   0                       # Write request sizes (log2)
system.mem_ctrls1.writePktSize::1                   0                       # Write request sizes (log2)
system.mem_ctrls1.writePktSize::2                   0                       # Write request sizes (log2)
system.mem_ctrls1.writePktSize::3                   0                       # Write request sizes (log2)
system.mem_ctrls1.writePktSize::4                   0                       # Write request sizes (log2)
system.mem_ctrls1.writePktSize::5                   0                       # Write request sizes (log2)
system.mem_ctrls1.writePktSize::6            13081796                       # Write request sizes (log2)
system.mem_ctrls1.rdQLenPdf::0               16581072                       # What read queue length does an incoming req see
system.mem_ctrls1.rdQLenPdf::1                 983392                       # What read queue length does an incoming req see
system.mem_ctrls1.rdQLenPdf::2                 288541                       # What read queue length does an incoming req see
system.mem_ctrls1.rdQLenPdf::3                  21243                       # What read queue length does an incoming req see
system.mem_ctrls1.rdQLenPdf::4                      0                       # What read queue length does an incoming req see
system.mem_ctrls1.rdQLenPdf::5                      0                       # What read queue length does an incoming req see
system.mem_ctrls1.rdQLenPdf::6                      0                       # What read queue length does an incoming req see
system.mem_ctrls1.rdQLenPdf::7                      0                       # What read queue length does an incoming req see
system.mem_ctrls1.rdQLenPdf::8                      0                       # What read queue length does an incoming req see
system.mem_ctrls1.rdQLenPdf::9                      0                       # What read queue length does an incoming req see
system.mem_ctrls1.rdQLenPdf::10                     0                       # What read queue length does an incoming req see
system.mem_ctrls1.rdQLenPdf::11                     0                       # What read queue length does an incoming req see
system.mem_ctrls1.rdQLenPdf::12                     0                       # What read queue length does an incoming req see
system.mem_ctrls1.rdQLenPdf::13                     0                       # What read queue length does an incoming req see
system.mem_ctrls1.rdQLenPdf::14                     0                       # What read queue length does an incoming req see
system.mem_ctrls1.rdQLenPdf::15                     0                       # What read queue length does an incoming req see
system.mem_ctrls1.rdQLenPdf::16                     0                       # What read queue length does an incoming req see
system.mem_ctrls1.rdQLenPdf::17                     0                       # What read queue length does an incoming req see
system.mem_ctrls1.rdQLenPdf::18                     0                       # What read queue length does an incoming req see
system.mem_ctrls1.rdQLenPdf::19                     0                       # What read queue length does an incoming req see
system.mem_ctrls1.rdQLenPdf::20                     0                       # What read queue length does an incoming req see
system.mem_ctrls1.rdQLenPdf::21                     0                       # What read queue length does an incoming req see
system.mem_ctrls1.rdQLenPdf::22                     0                       # What read queue length does an incoming req see
system.mem_ctrls1.rdQLenPdf::23                     0                       # What read queue length does an incoming req see
system.mem_ctrls1.rdQLenPdf::24                     0                       # What read queue length does an incoming req see
system.mem_ctrls1.rdQLenPdf::25                     0                       # What read queue length does an incoming req see
system.mem_ctrls1.rdQLenPdf::26                     0                       # What read queue length does an incoming req see
system.mem_ctrls1.rdQLenPdf::27                     0                       # What read queue length does an incoming req see
system.mem_ctrls1.rdQLenPdf::28                     0                       # What read queue length does an incoming req see
system.mem_ctrls1.rdQLenPdf::29                     0                       # What read queue length does an incoming req see
system.mem_ctrls1.rdQLenPdf::30                     0                       # What read queue length does an incoming req see
system.mem_ctrls1.rdQLenPdf::31                     0                       # What read queue length does an incoming req see
system.mem_ctrls1.wrQLenPdf::0                      2                       # What write queue length does an incoming req see
system.mem_ctrls1.wrQLenPdf::1                      2                       # What write queue length does an incoming req see
system.mem_ctrls1.wrQLenPdf::2                      2                       # What write queue length does an incoming req see
system.mem_ctrls1.wrQLenPdf::3                      2                       # What write queue length does an incoming req see
system.mem_ctrls1.wrQLenPdf::4                      2                       # What write queue length does an incoming req see
system.mem_ctrls1.wrQLenPdf::5                      2                       # What write queue length does an incoming req see
system.mem_ctrls1.wrQLenPdf::6                      2                       # What write queue length does an incoming req see
system.mem_ctrls1.wrQLenPdf::7                      2                       # What write queue length does an incoming req see
system.mem_ctrls1.wrQLenPdf::8                      2                       # What write queue length does an incoming req see
system.mem_ctrls1.wrQLenPdf::9                      2                       # What write queue length does an incoming req see
system.mem_ctrls1.wrQLenPdf::10                     2                       # What write queue length does an incoming req see
system.mem_ctrls1.wrQLenPdf::11                     2                       # What write queue length does an incoming req see
system.mem_ctrls1.wrQLenPdf::12                     2                       # What write queue length does an incoming req see
system.mem_ctrls1.wrQLenPdf::13                     2                       # What write queue length does an incoming req see
system.mem_ctrls1.wrQLenPdf::14                     2                       # What write queue length does an incoming req see
system.mem_ctrls1.wrQLenPdf::15                357199                       # What write queue length does an incoming req see
system.mem_ctrls1.wrQLenPdf::16                369218                       # What write queue length does an incoming req see
system.mem_ctrls1.wrQLenPdf::17                688115                       # What write queue length does an incoming req see
system.mem_ctrls1.wrQLenPdf::18                757227                       # What write queue length does an incoming req see
system.mem_ctrls1.wrQLenPdf::19                773249                       # What write queue length does an incoming req see
system.mem_ctrls1.wrQLenPdf::20                775587                       # What write queue length does an incoming req see
system.mem_ctrls1.wrQLenPdf::21                775660                       # What write queue length does an incoming req see
system.mem_ctrls1.wrQLenPdf::22                775081                       # What write queue length does an incoming req see
system.mem_ctrls1.wrQLenPdf::23                775900                       # What write queue length does an incoming req see
system.mem_ctrls1.wrQLenPdf::24                777488                       # What write queue length does an incoming req see
system.mem_ctrls1.wrQLenPdf::25                778885                       # What write queue length does an incoming req see
system.mem_ctrls1.wrQLenPdf::26                780206                       # What write queue length does an incoming req see
system.mem_ctrls1.wrQLenPdf::27                801406                       # What write queue length does an incoming req see
system.mem_ctrls1.wrQLenPdf::28                792480                       # What write queue length does an incoming req see
system.mem_ctrls1.wrQLenPdf::29                788427                       # What write queue length does an incoming req see
system.mem_ctrls1.wrQLenPdf::30                775068                       # What write queue length does an incoming req see
system.mem_ctrls1.wrQLenPdf::31                768936                       # What write queue length does an incoming req see
system.mem_ctrls1.wrQLenPdf::32                768654                       # What write queue length does an incoming req see
system.mem_ctrls1.wrQLenPdf::33                  2126                       # What write queue length does an incoming req see
system.mem_ctrls1.wrQLenPdf::34                   616                       # What write queue length does an incoming req see
system.mem_ctrls1.wrQLenPdf::35                   176                       # What write queue length does an incoming req see
system.mem_ctrls1.wrQLenPdf::36                    47                       # What write queue length does an incoming req see
system.mem_ctrls1.wrQLenPdf::37                    13                       # What write queue length does an incoming req see
system.mem_ctrls1.wrQLenPdf::38                     1                       # What write queue length does an incoming req see
system.mem_ctrls1.wrQLenPdf::39                     1                       # What write queue length does an incoming req see
system.mem_ctrls1.wrQLenPdf::40                     0                       # What write queue length does an incoming req see
system.mem_ctrls1.wrQLenPdf::41                     0                       # What write queue length does an incoming req see
system.mem_ctrls1.wrQLenPdf::42                     0                       # What write queue length does an incoming req see
system.mem_ctrls1.wrQLenPdf::43                     0                       # What write queue length does an incoming req see
system.mem_ctrls1.wrQLenPdf::44                     0                       # What write queue length does an incoming req see
system.mem_ctrls1.wrQLenPdf::45                     0                       # What write queue length does an incoming req see
system.mem_ctrls1.wrQLenPdf::46                     0                       # What write queue length does an incoming req see
system.mem_ctrls1.wrQLenPdf::47                     0                       # What write queue length does an incoming req see
system.mem_ctrls1.wrQLenPdf::48                     0                       # What write queue length does an incoming req see
system.mem_ctrls1.wrQLenPdf::49                     0                       # What write queue length does an incoming req see
system.mem_ctrls1.wrQLenPdf::50                     0                       # What write queue length does an incoming req see
system.mem_ctrls1.wrQLenPdf::51                     0                       # What write queue length does an incoming req see
system.mem_ctrls1.wrQLenPdf::52                     0                       # What write queue length does an incoming req see
system.mem_ctrls1.wrQLenPdf::53                     0                       # What write queue length does an incoming req see
system.mem_ctrls1.wrQLenPdf::54                     0                       # What write queue length does an incoming req see
system.mem_ctrls1.wrQLenPdf::55                     0                       # What write queue length does an incoming req see
system.mem_ctrls1.wrQLenPdf::56                     0                       # What write queue length does an incoming req see
system.mem_ctrls1.wrQLenPdf::57                     0                       # What write queue length does an incoming req see
system.mem_ctrls1.wrQLenPdf::58                     0                       # What write queue length does an incoming req see
system.mem_ctrls1.wrQLenPdf::59                     0                       # What write queue length does an incoming req see
system.mem_ctrls1.wrQLenPdf::60                     0                       # What write queue length does an incoming req see
system.mem_ctrls1.wrQLenPdf::61                     0                       # What write queue length does an incoming req see
system.mem_ctrls1.wrQLenPdf::62                     0                       # What write queue length does an incoming req see
system.mem_ctrls1.wrQLenPdf::63                     0                       # What write queue length does an incoming req see
system.mem_ctrls1.bytesPerActivate::samples     13768197                       # Bytes accessed per row activation
system.mem_ctrls1.bytesPerActivate::mean   143.895619                       # Bytes accessed per row activation
system.mem_ctrls1.bytesPerActivate::gmean   117.086362                       # Bytes accessed per row activation
system.mem_ctrls1.bytesPerActivate::stdev   108.050793                       # Bytes accessed per row activation
system.mem_ctrls1.bytesPerActivate::0-127      5911857     42.94%     42.94% # Bytes accessed per row activation
system.mem_ctrls1.bytesPerActivate::128-255      5636738     40.94%     83.88% # Bytes accessed per row activation
system.mem_ctrls1.bytesPerActivate::256-383      1535883     11.16%     95.03% # Bytes accessed per row activation
system.mem_ctrls1.bytesPerActivate::384-511       452247      3.28%     98.32% # Bytes accessed per row activation
system.mem_ctrls1.bytesPerActivate::512-639       133672      0.97%     99.29% # Bytes accessed per row activation
system.mem_ctrls1.bytesPerActivate::640-767        55040      0.40%     99.69% # Bytes accessed per row activation
system.mem_ctrls1.bytesPerActivate::768-895        26689      0.19%     99.88% # Bytes accessed per row activation
system.mem_ctrls1.bytesPerActivate::896-1023         9108      0.07%     99.95% # Bytes accessed per row activation
system.mem_ctrls1.bytesPerActivate::1024-1151         6963      0.05%    100.00% # Bytes accessed per row activation
system.mem_ctrls1.bytesPerActivate::total     13768197                       # Bytes accessed per row activation
system.mem_ctrls1.rdPerTurnAround::samples       768025                       # Reads before turning the bus around for writes
system.mem_ctrls1.rdPerTurnAround::mean     23.272987                       # Reads before turning the bus around for writes
system.mem_ctrls1.rdPerTurnAround::gmean    22.692635                       # Reads before turning the bus around for writes
system.mem_ctrls1.rdPerTurnAround::stdev    37.941682                       # Reads before turning the bus around for writes
system.mem_ctrls1.rdPerTurnAround::0-2047       768024    100.00%    100.00% # Reads before turning the bus around for writes
system.mem_ctrls1.rdPerTurnAround::32768-34815            1      0.00%    100.00% # Reads before turning the bus around for writes
system.mem_ctrls1.rdPerTurnAround::total       768025                       # Reads before turning the bus around for writes
system.mem_ctrls1.wrPerTurnAround::samples       768025                       # Writes before turning the bus around for reads
system.mem_ctrls1.wrPerTurnAround::mean     17.032999                       # Writes before turning the bus around for reads
system.mem_ctrls1.wrPerTurnAround::gmean    16.996388                       # Writes before turning the bus around for reads
system.mem_ctrls1.wrPerTurnAround::stdev     1.125599                       # Writes before turning the bus around for reads
system.mem_ctrls1.wrPerTurnAround::16          399447     52.01%     52.01% # Writes before turning the bus around for reads
system.mem_ctrls1.wrPerTurnAround::17            7375      0.96%     52.97% # Writes before turning the bus around for reads
system.mem_ctrls1.wrPerTurnAround::18          307267     40.01%     92.98% # Writes before turning the bus around for reads
system.mem_ctrls1.wrPerTurnAround::19           45598      5.94%     98.91% # Writes before turning the bus around for reads
system.mem_ctrls1.wrPerTurnAround::20            7250      0.94%     99.86% # Writes before turning the bus around for reads
system.mem_ctrls1.wrPerTurnAround::21             903      0.12%     99.98% # Writes before turning the bus around for reads
system.mem_ctrls1.wrPerTurnAround::22             154      0.02%    100.00% # Writes before turning the bus around for reads
system.mem_ctrls1.wrPerTurnAround::23              22      0.00%    100.00% # Writes before turning the bus around for reads
system.mem_ctrls1.wrPerTurnAround::24               8      0.00%    100.00% # Writes before turning the bus around for reads
system.mem_ctrls1.wrPerTurnAround::25               1      0.00%    100.00% # Writes before turning the bus around for reads
system.mem_ctrls1.wrPerTurnAround::total       768025                       # Writes before turning the bus around for reads
system.mem_ctrls1.totQLat                444425067839                       # Total ticks spent queuing
system.mem_ctrls1.totMemAccLat           779567217839                       # Total ticks spent from burst creation until serviced by the DRAM
system.mem_ctrls1.totBusLat               89371240000                       # Total ticks spent in databus transfers
system.mem_ctrls1.avgQLat                    24863.99                       # Average queueing delay per DRAM burst
system.mem_ctrls1.avgBusLat                   5000.00                       # Average bus latency per DRAM burst
system.mem_ctrls1.avgMemAccLat               43613.99                       # Average memory access latency per DRAM burst
system.mem_ctrls1.avgRdBW                      267.74                       # Average DRAM read bandwidth in MiByte/s
system.mem_ctrls1.avgWrBW                      195.95                       # Average achieved write bandwidth in MiByte/s
system.mem_ctrls1.avgRdBWSys                   267.74                       # Average system read bandwidth in MiByte/s
system.mem_ctrls1.avgWrBWSys                   195.95                       # Average system write bandwidth in MiByte/s
system.mem_ctrls1.peakBW                     12800.00                       # Theoretical peak bandwidth in MiByte/s
system.mem_ctrls1.busUtil                        3.62                       # Data bus utilization in percentage
system.mem_ctrls1.busUtilRead                    2.09                       # Data bus utilization in percentage for reads
system.mem_ctrls1.busUtilWrite                   1.53                       # Data bus utilization in percentage for writes
system.mem_ctrls1.avgRdQLen                      1.03                       # Average read queue length when enqueuing
system.mem_ctrls1.avgWrQLen                     25.00                       # Average write queue length when enqueuing
system.mem_ctrls1.readRowHits                 8793631                       # Number of row buffer hits during reads
system.mem_ctrls1.writeRowHits                8394180                       # Number of row buffer hits during writes
system.mem_ctrls1.readRowHitRate                49.20                       # Row buffer hit rate for reads
system.mem_ctrls1.writeRowHitRate               64.17                       # Row buffer hit rate for writes
system.mem_ctrls1.avgGap                    138022.11                       # Average gap between requests
system.mem_ctrls1.pageHitRate                   55.52                       # Row buffer hit rate, read and write combined
system.mem_ctrls1_0.actEnergy             49280701260                       # Energy for activate commands per rank (pJ)
system.mem_ctrls1_0.preEnergy             26193306315                       # Energy for precharge commands per rank (pJ)
system.mem_ctrls1_0.readEnergy            63990714900                       # Energy for read commands per rank (pJ)
system.mem_ctrls1_0.writeEnergy           34274525220                       # Energy for write commands per rank (pJ)
system.mem_ctrls1_0.refreshEnergy        342389514480.000061                       # Energy for refresh commands per rank (pJ)
system.mem_ctrls1_0.actBackEnergy        495348802590                       # Energy for active background per rank (pJ)
system.mem_ctrls1_0.preBackEnergy         13397730240                       # Energy for precharge background per rank (pJ)
system.mem_ctrls1_0.actPowerDownEnergy   1168300169400                       # Energy for active power-down per rank (pJ)
system.mem_ctrls1_0.prePowerDownEnergy   209758438560                       # Energy for precharge power-down per rank (pJ)
system.mem_ctrls1_0.selfRefreshEnergy     18589645020                       # Energy for self refresh per rank (pJ)
system.mem_ctrls1_0.totalEnergy          2421603383835                       # Total energy per rank (pJ)
system.mem_ctrls1_0.averagePower           566.772636                       # Core power per rank (mW)
system.mem_ctrls1_0.totalIdleTime        3151265607639                       # Total Idle time Per DRAM Rank
system.mem_ctrls1_0.memoryStateTime::IDLE  17728941720                       # Time in different power states
system.mem_ctrls1_0.memoryStateTime::REF 144929542000                       # Time in different power states
system.mem_ctrls1_0.memoryStateTime::SREF  42952232883                       # Time in different power states
system.mem_ctrls1_0.memoryStateTime::PRE_PDN 546246942710                       # Time in different power states
system.mem_ctrls1_0.memoryStateTime::ACT 958694593061                       # Time in different power states
system.mem_ctrls1_0.memoryStateTime::ACT_PDN 2562066432046                       # Time in different power states
system.mem_ctrls1_1.actEnergy             49024289580                       # Energy for activate commands per rank (pJ)
system.mem_ctrls1_1.preEnergy             26057001300                       # Energy for precharge commands per rank (pJ)
system.mem_ctrls1_1.readEnergy            63631415820                       # Energy for read commands per rank (pJ)
system.mem_ctrls1_1.writeEnergy           34012308960                       # Energy for write commands per rank (pJ)
system.mem_ctrls1_1.refreshEnergy        342602794560.000061                       # Energy for refresh commands per rank (pJ)
system.mem_ctrls1_1.actBackEnergy        491375945910                       # Energy for active background per rank (pJ)
system.mem_ctrls1_1.preBackEnergy         13658538720                       # Energy for precharge background per rank (pJ)
system.mem_ctrls1_1.actPowerDownEnergy   1164672058980                       # Energy for active power-down per rank (pJ)
system.mem_ctrls1_1.prePowerDownEnergy   214501956480                       # Energy for precharge power-down per rank (pJ)
system.mem_ctrls1_1.selfRefreshEnergy     19947301665                       # Energy for self refresh per rank (pJ)
system.mem_ctrls1_1.totalEnergy          2419570236975                       # Total energy per rank (pJ)
system.mem_ctrls1_1.averagePower           566.296782                       # Core power per rank (mW)
system.mem_ctrls1_1.totalIdleTime        3159281155724                       # Total Idle time Per DRAM Rank
system.mem_ctrls1_1.memoryStateTime::IDLE  18441778380                       # Time in different power states
system.mem_ctrls1_1.memoryStateTime::REF 145025588000                       # Time in different power states
system.mem_ctrls1_1.memoryStateTime::SREF  46573905434                       # Time in different power states
system.mem_ctrls1_1.memoryStateTime::PRE_PDN 558596782376                       # Time in different power states
system.mem_ctrls1_1.memoryStateTime::ACT 949870068851                       # Time in different power states
system.mem_ctrls1_1.memoryStateTime::ACT_PDN 2554110561379                       # Time in different power states
system.pwrStateResidencyTicks::UNDEFINED 24257720044287                       # Cumulative time (in ticks) in various power states
system.cpu.branchPred.lookups                       0                       # Number of BP lookups
system.cpu.branchPred.condPredicted                 0                       # Number of conditional branches predicted
system.cpu.branchPred.condIncorrect                 0                       # Number of conditional branches incorrect
system.cpu.branchPred.BTBLookups                    0                       # Number of BTB lookups
system.cpu.branchPred.BTBHits                       0                       # Number of BTB hits
system.cpu.branchPred.BTBCorrect                    0                       # Number of correct BTB predictions (this stat may not work properly.
system.cpu.branchPred.BTBHitPct                   nan                       # BTB Hit Percentage
system.cpu.branchPred.usedRAS                       0                       # Number of times the RAS was used to get a target.
system.cpu.branchPred.RASInCorrect                  0                       # Number of incorrect RAS predictions.
system.cpu.branchPred.indirectLookups               0                       # Number of indirect predictor lookups.
system.cpu.branchPred.indirectHits                  0                       # Number of indirect target hits.
system.cpu.branchPred.indirectMisses                0                       # Number of indirect misses.
system.cpu.branchPredindirectMispredicted            0                       # Number of mispredicted indirect branches.
system.cpu_voltage_domain.voltage                   1                       # Voltage in Volts
system.cpu_clk_domain.clock                       333                       # Clock period in ticks
system.cpu.dtb.fetch_hits                           0                       # ITB hits
system.cpu.dtb.fetch_misses                         0                       # ITB misses
system.cpu.dtb.fetch_acv                            0                       # ITB acv
system.cpu.dtb.fetch_accesses                       0                       # ITB accesses
system.cpu.dtb.read_hits                           14                       # DTB read hits
system.cpu.dtb.read_misses                          0                       # DTB read misses
system.cpu.dtb.read_acv                             0                       # DTB read access violations
system.cpu.dtb.read_accesses                       14                       # DTB read accesses
system.cpu.dtb.write_hits                           1                       # DTB write hits
system.cpu.dtb.write_misses                         0                       # DTB write misses
system.cpu.dtb.write_acv                            0                       # DTB write access violations
system.cpu.dtb.write_accesses                       1                       # DTB write accesses
system.cpu.dtb.data_hits                           15                       # DTB hits
system.cpu.dtb.data_misses                          0                       # DTB misses
system.cpu.dtb.data_acv                             0                       # DTB access violations
system.cpu.dtb.data_accesses                       15                       # DTB accesses
system.cpu.itb.fetch_hits                           4                       # ITB hits
system.cpu.itb.fetch_misses                         0                       # ITB misses
system.cpu.itb.fetch_acv                            0                       # ITB acv
system.cpu.itb.fetch_accesses                       4                       # ITB accesses
system.cpu.itb.read_hits                            0                       # DTB read hits
system.cpu.itb.read_misses                          0                       # DTB read misses
system.cpu.itb.read_acv                             0                       # DTB read access violations
system.cpu.itb.read_accesses                        0                       # DTB read accesses
system.cpu.itb.write_hits                           0                       # DTB write hits
system.cpu.itb.write_misses                         0                       # DTB write misses
system.cpu.itb.write_acv                            0                       # DTB write access violations
system.cpu.itb.write_accesses                       0                       # DTB write accesses
system.cpu.itb.data_hits                            0                       # DTB hits
system.cpu.itb.data_misses                          0                       # DTB misses
system.cpu.itb.data_acv                             0                       # DTB access violations
system.cpu.itb.data_accesses                        0                       # DTB accesses
system.cpu.workload.num_syscalls                    0                       # Number of system calls
system.cpu.pwrStateResidencyTicks::ON    4272618684420                       # Cumulative time (in ticks) in various power states
system.cpu.numCycles                              583                       # number of cpu cycles simulated
system.cpu.numWorkItemsStarted                      0                       # number of work items this cpu started
system.cpu.numWorkItemsCompleted                    0                       # number of work items this cpu completed
system.cpu.fetch.icacheStallCycles                 63                       # Number of cycles fetch is stalled on an Icache miss
system.cpu.fetch.Insts                             29                       # Number of instructions fetch has processed
system.cpu.fetch.Cycles                             4                       # Number of cycles fetch has run and was not squashing or blocked
system.cpu.fetch.SquashCycles                       3                       # Number of cycles fetch has spent squashing
system.cpu.fetch.PendingDrainCycles                 8                       # Number of cycles fetch has spent waiting on pipes to drain
system.cpu.fetch.CacheLines                         4                       # Number of cache lines fetched
system.cpu.fetch.IcacheSquashes                     2                       # Number of outstanding Icache misses that were squashed
system.cpu.fetch.rateDist::samples                 76                       # Number of instructions fetched each cycle (Total)
system.cpu.fetch.rateDist::mean              0.381579                       # Number of instructions fetched each cycle (Total)
system.cpu.fetch.rateDist::stdev             1.657042                       # Number of instructions fetched each cycle (Total)
system.cpu.fetch.rateDist::underflows               0      0.00%      0.00% # Number of instructions fetched each cycle (Total)
system.cpu.fetch.rateDist::0                       72     94.74%     94.74% # Number of instructions fetched each cycle (Total)
system.cpu.fetch.rateDist::1                        0      0.00%     94.74% # Number of instructions fetched each cycle (Total)
system.cpu.fetch.rateDist::2                        0      0.00%     94.74% # Number of instructions fetched each cycle (Total)
system.cpu.fetch.rateDist::3                        0      0.00%     94.74% # Number of instructions fetched each cycle (Total)
system.cpu.fetch.rateDist::4                        0      0.00%     94.74% # Number of instructions fetched each cycle (Total)
system.cpu.fetch.rateDist::5                        1      1.32%     96.05% # Number of instructions fetched each cycle (Total)
system.cpu.fetch.rateDist::6                        0      0.00%     96.05% # Number of instructions fetched each cycle (Total)
system.cpu.fetch.rateDist::7                        0      0.00%     96.05% # Number of instructions fetched each cycle (Total)
system.cpu.fetch.rateDist::8                        3      3.95%    100.00% # Number of instructions fetched each cycle (Total)
system.cpu.fetch.rateDist::overflows                0      0.00%    100.00% # Number of instructions fetched each cycle (Total)
system.cpu.fetch.rateDist::min_value                0                       # Number of instructions fetched each cycle (Total)
system.cpu.fetch.rateDist::max_value                8                       # Number of instructions fetched each cycle (Total)
[...]
system.switch_cpus_1.iq.FU_type_0::IprAccess            0      0.00%    100.00% # Type of FU issued
system.switch_cpus_1.iq.FU_type_0::InstPrefetch            0      0.00%    100.00% # Type of FU issued
system.switch_cpus_1.iq.FU_type_0::total    328140332                       # Type of FU issued
system.switch_cpus_1.iq.rate                 0.548677                       # Inst issue rate
system.switch_cpus_1.iq.fu_busy_cnt          58859557                       # FU busy when requested
system.switch_cpus_1.iq.fu_busy_rate         0.179373                       # FU busy rate (busy events/executed inst)
system.switch_cpus_1.iq.int_inst_queue_reads    650856231                       # Number of integer instruction queue reads
system.switch_cpus_1.iq.int_inst_queue_writes     23717946                       # Number of integer instruction queue writes
system.switch_cpus_1.iq.int_inst_queue_wakeup_accesses     22423591                       # Number of integer instruction queue wakeup accesses
system.switch_cpus_1.iq.fp_inst_queue_reads    662397105                       # Number of floating instruction queue reads
system.switch_cpus_1.iq.fp_inst_queue_writes    190220970                       # Number of floating instruction queue writes
system.switch_cpus_1.iq.fp_inst_queue_wakeup_accesses    182353188                       # Number of floating instruction queue wakeup accesses
system.switch_cpus_1.iq.int_alu_accesses     27460039                       # Number of integer alu accesses
system.switch_cpus_1.iq.fp_alu_accesses     359539850                       # Number of floating point alu accesses
system.switch_cpus_1.iew.lsq.thread0.forwLoads      8679685                       # Number of loads that had data forwarded from stores
system.switch_cpus_1.iew.lsq.thread0.invAddrLoads            0                       # Number of loads ignored due to an invalid address
system.switch_cpus_1.iew.lsq.thread0.squashedLoads      1749150                       # Number of loads squashed
system.switch_cpus_1.iew.lsq.thread0.ignoredResponses           22                       # Number of memory responses ignored because the instruction is squashed
system.switch_cpus_1.iew.lsq.thread0.memOrderViolation         1286                       # Number of memory ordering violations
system.switch_cpus_1.iew.lsq.thread0.squashedStores       650344                       # Number of stores squashed
system.switch_cpus_1.iew.lsq.thread0.invAddrSwpfs            0                       # Number of software prefetches ignored due to an invalid address
system.switch_cpus_1.iew.lsq.thread0.blockedLoads            0                       # Number of blocked loads due to partial load-store forwarding
system.switch_cpus_1.iew.lsq.thread0.rescheduledLoads            0                       # Number of loads that were rescheduled
system.switch_cpus_1.iew.lsq.thread0.cacheBlocked    131001117                       # Number of times an access to memory failed due to the cache being blocked
system.switch_cpus_1.iew.iewIdleCycles              0                       # Number of cycles IEW is idle
system.switch_cpus_1.iew.iewSquashCycles        62293                       # Number of cycles IEW is squashing
system.switch_cpus_1.iew.iewBlockCycles     409394130                       # Number of cycles IEW is blocking
system.switch_cpus_1.iew.iewUnblockCycles     24748909                       # Number of cycles IEW is unblocking
system.switch_cpus_1.iew.iewDispatchedInsts    206968863                       # Number of instructions dispatched to IQ
system.switch_cpus_1.iew.iewDispSquashedInsts           56                       # Number of squashed instructions skipped by dispatch
system.switch_cpus_1.iew.iewDispLoadInsts     38693740                       # Number of dispatched load instructions
system.switch_cpus_1.iew.iewDispStoreInsts     18512350                       # Number of dispatched store instructions
system.switch_cpus_1.iew.iewDispNonSpecInsts            0                       # Number of dispatched non-speculative instructions
system.switch_cpus_1.iew.iewIQFullEvents      1714932                       # Number of times the IQ has become full, causing a stall
system.switch_cpus_1.iew.iewLSQFullEvents     21435702                       # Number of times the LSQ has become full, causing a stall
system.switch_cpus_1.iew.memOrderViolationEvents         1286                       # Number of memory order violations
system.switch_cpus_1.iew.predictedTakenIncorrect         1291                       # Number of branches that were predicted taken incorrectly
system.switch_cpus_1.iew.predictedNotTakenIncorrect         8909                       # Number of branches that were predicted not taken incorrectly
system.switch_cpus_1.iew.branchMispredicts        10200                       # Number of branch mispredicts detected at execute
system.switch_cpus_1.iew.iewExecutedInsts    328127920                       # Number of executed instructions
system.switch_cpus_1.iew.iewExecLoadInsts    161433001                       # Number of load instructions executed
system.switch_cpus_1.iew.iewExecSquashedInsts        12398                       # Number of squashed instructions skipped in execute
system.switch_cpus_1.iew.exec_swp                   0                       # number of swp insts executed
system.switch_cpus_1.iew.exec_nop                   1                       # number of nop insts executed
system.switch_cpus_1.iew.exec_refs          179827932                       # number of memory reference insts executed
system.switch_cpus_1.iew.exec_branches        3142024                       # Number of branches executed
system.switch_cpus_1.iew.exec_stores         18394931                       # Number of stores executed
system.switch_cpus_1.iew.exec_rate           0.548656                       # Inst execution rate
system.switch_cpus_1.iew.wb_sent            204969759                       # cumulative count of insts sent to commit
system.switch_cpus_1.iew.wb_count           204776779                       # cumulative count of insts written-back
system.switch_cpus_1.iew.wb_producers       162668947                       # num instructions producing a value
system.switch_cpus_1.iew.wb_consumers       223466010                       # num instructions consuming a value
system.switch_cpus_1.iew.wb_rate             0.342403                       # insts written-back per cycle
system.switch_cpus_1.iew.wb_fanout           0.727936                       # average fanout of values written-back
system.switch_cpus_1.commit.commitSquashedInsts      7003590                       # The number of squashed insts skipped by commit
system.switch_cpus_1.commit.branchMispredicts        10200                       # The number of times a branch was mispredicted
system.switch_cpus_1.commit.committed_per_cycle::samples    597152094                       # Number of insts commited each cycle
system.switch_cpus_1.commit.committed_per_cycle::mean     0.334923                       # Number of insts commited each cycle
system.switch_cpus_1.commit.committed_per_cycle::stdev     1.470057                       # Number of insts commited each cycle
system.switch_cpus_1.commit.committed_per_cycle::underflows            0      0.00%      0.00% # Number of insts commited each cycle
system.switch_cpus_1.commit.committed_per_cycle::0    558665040     93.55%     93.55% # Number of insts commited each cycle
system.switch_cpus_1.commit.committed_per_cycle::1      8437591      1.41%     94.97% # Number of insts commited each cycle
system.switch_cpus_1.commit.committed_per_cycle::2      1822927      0.31%     95.27% # Number of insts commited each cycle
system.switch_cpus_1.commit.committed_per_cycle::3      2090353      0.35%     95.62% # Number of insts commited each cycle
system.switch_cpus_1.commit.committed_per_cycle::4      3213295      0.54%     96.16% # Number of insts commited each cycle
system.switch_cpus_1.commit.committed_per_cycle::5      3348413      0.56%     96.72% # Number of insts commited each cycle
system.switch_cpus_1.commit.committed_per_cycle::6      1610696      0.27%     96.99% # Number of insts commited each cycle
system.switch_cpus_1.commit.committed_per_cycle::7      1324154      0.22%     97.21% # Number of insts commited each cycle
system.switch_cpus_1.commit.committed_per_cycle::8     16639625      2.79%    100.00% # Number of insts commited each cycle
system.switch_cpus_1.commit.committed_per_cycle::overflows            0      0.00%    100.00% # Number of insts commited each cycle
system.switch_cpus_1.commit.committed_per_cycle::min_value            0                       # Number of insts commited each cycle
system.switch_cpus_1.commit.committed_per_cycle::max_value            8                       # Number of insts commited each cycle
system.switch_cpus_1.commit.committed_per_cycle::total    597152094                       # Number of insts commited each cycle
system.switch_cpus_1.commit.committedInsts    200000003                       # Number of instructions committed
system.switch_cpus_1.commit.committedOps    200000003                       # Number of ops (including micro ops) committed
system.switch_cpus_1.commit.swp_count               0                       # Number of s/w prefetches committed
system.switch_cpus_1.commit.refs             54806565                       # Number of memory references committed
system.switch_cpus_1.commit.loads            36944574                       # Number of loads committed
system.switch_cpus_1.commit.membars                 0                       # Number of memory barriers committed
system.switch_cpus_1.commit.branches          3002738                       # Number of branches committed
system.switch_cpus_1.commit.fp_insts        178679405                       # Number of committed floating point instructions.
system.switch_cpus_1.commit.int_insts        74337577                       # Number of committed integer instructions.
system.switch_cpus_1.commit.function_calls            0                       # Number of function calls committed.
system.switch_cpus_1.commit.op_class_0::No_OpClass            0      0.00%      0.00% # Class of committed instruction
system.switch_cpus_1.commit.op_class_0::IntAlu     20683879     10.34%     10.34% # Class of committed instruction
system.switch_cpus_1.commit.op_class_0::IntMult            0      0.00%     10.34% # Class of committed instruction
system.switch_cpus_1.commit.op_class_0::IntDiv            0      0.00%     10.34% # Class of committed instruction
system.switch_cpus_1.commit.op_class_0::FloatAdd     77818474     38.91%     49.25% # Class of committed instruction
system.switch_cpus_1.commit.op_class_0::FloatCmp            0      0.00%     49.25% # Class of committed instruction
system.switch_cpus_1.commit.op_class_0::FloatCvt            0      0.00%     49.25% # Class of committed instruction
system.switch_cpus_1.commit.op_class_0::FloatMult     44961786     22.48%     71.73% # Class of committed instruction
system.switch_cpus_1.commit.op_class_0::FloatMultAcc            0      0.00%     71.73% # Class of committed instruction
system.switch_cpus_1.commit.op_class_0::FloatDiv      1729299      0.86%     72.60% # Class of committed instruction
system.switch_cpus_1.commit.op_class_0::FloatMisc            0      0.00%     72.60% # Class of committed instruction
system.switch_cpus_1.commit.op_class_0::FloatSqrt            0      0.00%     72.60% # Class of committed instruction
system.switch_cpus_1.commit.op_class_0::SimdAdd            0      0.00%     72.60% # Class of committed instruction
system.switch_cpus_1.commit.op_class_0::SimdAddAcc            0      0.00%     72.60% # Class of committed instruction
system.switch_cpus_1.commit.op_class_0::SimdAlu            0      0.00%     72.60% # Class of committed instruction
system.switch_cpus_1.commit.op_class_0::SimdCmp            0      0.00%     72.60% # Class of committed instruction
system.switch_cpus_1.commit.op_class_0::SimdCvt            0      0.00%     72.60% # Class of committed instruction
system.switch_cpus_1.commit.op_class_0::SimdMisc            0      0.00%     72.60% # Class of committed instruction
system.switch_cpus_1.commit.op_class_0::SimdMult            0      0.00%     72.60% # Class of committed instruction
system.switch_cpus_1.commit.op_class_0::SimdMultAcc            0      0.00%     72.60% # Class of committed instruction
system.switch_cpus_1.commit.op_class_0::SimdShift            0      0.00%     72.60% # Class of committed instruction
system.switch_cpus_1.commit.op_class_0::SimdShiftAcc            0      0.00%     72.60% # Class of committed instruction
system.switch_cpus_1.commit.op_class_0::SimdSqrt            0      0.00%     72.60% # Class of committed instruction
system.switch_cpus_1.commit.op_class_0::SimdFloatAdd            0      0.00%     72.60% # Class of committed instruction
system.switch_cpus_1.commit.op_class_0::SimdFloatAlu            0      0.00%     72.60% # Class of committed instruction
system.switch_cpus_1.commit.op_class_0::SimdFloatCmp            0      0.00%     72.60% # Class of committed instruction
system.switch_cpus_1.commit.op_class_0::SimdFloatCvt            0      0.00%     72.60% # Class of committed instruction
system.switch_cpus_1.commit.op_class_0::SimdFloatDiv            0      0.00%     72.60% # Class of committed instruction
system.switch_cpus_1.commit.op_class_0::SimdFloatMisc            0      0.00%     72.60% # Class of committed instruction
system.switch_cpus_1.commit.op_class_0::SimdFloatMult            0      0.00%     72.60% # Class of committed instruction
system.switch_cpus_1.commit.op_class_0::SimdFloatMultAcc            0      0.00%     72.60% # Class of committed instruction
system.switch_cpus_1.commit.op_class_0::SimdFloatSqrt            0      0.00%     72.60% # Class of committed instruction
system.switch_cpus_1.commit.op_class_0::MemRead       636719      0.32%     72.92% # Class of committed instruction
system.switch_cpus_1.commit.op_class_0::MemWrite            0      0.00%     72.92% # Class of committed instruction
system.switch_cpus_1.commit.op_class_0::FloatMemRead     36307855     18.15%     91.07% # Class of committed instruction
system.switch_cpus_1.commit.op_class_0::FloatMemWrite     17861991      8.93%    100.00% # Class of committed instruction
system.switch_cpus_1.commit.op_class_0::IprAccess            0      0.00%    100.00% # Class of committed instruction
system.switch_cpus_1.commit.op_class_0::InstPrefetch            0      0.00%    100.00% # Class of committed instruction
system.switch_cpus_1.commit.op_class_0::total    200000003                       # Class of committed instruction
system.switch_cpus_1.commit.bw_lim_events     16639625                       # number cycles where commit BW limit reached
system.switch_cpus_1.rob.rob_reads          786848733                       # The number of ROB reads
system.switch_cpus_1.rob.rob_writes         414912898                       # The number of ROB writes
system.switch_cpus_1.committedInsts         200000003                       # Number of Instructions Simulated
system.switch_cpus_1.committedOps           200000003                       # Number of Ops (including micro ops) Simulated
system.switch_cpus_1.cpi                     2.990289                       # CPI: Cycles Per Instruction
system.switch_cpus_1.cpi_total               2.990289                       # CPI: Total CPI of All Threads
system.switch_cpus_1.ipc                     0.334416                       # IPC: Instructions Per Cycle
system.switch_cpus_1.ipc_total               0.334416                       # IPC: Total IPC of All Threads
system.switch_cpus_1.int_regfile_reads      201078385                       # number of integer regfile reads
system.switch_cpus_1.int_regfile_writes      19282999                       # number of integer regfile writes
system.switch_cpus_1.fp_regfile_reads       271477245                       # number of floating regfile reads
system.switch_cpus_1.fp_regfile_writes      164010461                       # number of floating regfile writes
system.tol3bus.snoop_filter.tot_requests     76288137                       # Total number of requests made to the snoop filter.
system.tol3bus.snoop_filter.hit_single_requests     38141898                       # Number of requests hitting in the snoop filter with a single holder of the requested data.
system.tol3bus.snoop_filter.hit_multi_requests            0                       # Number of requests hitting in the snoop filter with multiple (>1) holders of the requested data.
system.tol3bus.snoop_filter.tot_snoops            286                       # Total number of snoops made to the snoop filter.
system.tol3bus.snoop_filter.hit_single_snoops          286                       # Number of snoops hitting in the snoop filter with a single holder of the requested data.
system.tol3bus.snoop_filter.hit_multi_snoops            0                       # Number of snoops hitting in the snoop filter with multiple (>1) holders of the requested data.
system.tol3bus.pwrStateResidencyTicks::UNDEFINED 24257720044287                       # Cumulative time (in ticks) in various power states
system.tol3bus.trans_dist::ReadResp           9536652                       # Transaction distribution
system.tol3bus.trans_dist::WritebackDirty     54769749                       # Transaction distribution
system.tol3bus.trans_dist::CleanEvict        19052857                       # Transaction distribution
system.tol3bus.trans_dist::ReadExReq         28609587                       # Transaction distribution
system.tol3bus.trans_dist::ReadExResp        28609585                       # Transaction distribution
system.tol3bus.trans_dist::ReadSharedReq      9536652                       # Transaction distribution
system.tol3bus.pkt_count_system.cpu.l2.mem_side::system.l3.cpu_side    114434374                       # Packet count per connected master and slave (bytes)
system.tol3bus.pkt_size_system.cpu.l2.mem_side::system.l3.cpu_side   4272153536                       # Cumulative packet size per connected master and slave (bytes)
system.tol3bus.snoops                        35680708                       # Total snoops (count)
system.tol3bus.snoopTraffic                1674469568                       # Total snoop traffic (bytes)
system.tol3bus.snoop_fanout::samples         73826947                       # Request fanout histogram
system.tol3bus.snoop_fanout::mean            0.000004                       # Request fanout histogram
system.tol3bus.snoop_fanout::stdev           0.001968                       # Request fanout histogram
system.tol3bus.snoop_fanout::underflows             0      0.00%      0.00% # Request fanout histogram
system.tol3bus.snoop_fanout::0               73826661    100.00%    100.00% # Request fanout histogram
system.tol3bus.snoop_fanout::1                    286      0.00%    100.00% # Request fanout histogram
system.tol3bus.snoop_fanout::overflows              0      0.00%    100.00% # Request fanout histogram
system.tol3bus.snoop_fanout::min_value              0                       # Request fanout histogram
system.tol3bus.snoop_fanout::max_value              1                       # Request fanout histogram
system.tol3bus.snoop_fanout::total           73826947                       # Request fanout histogram
system.tol3bus.reqLayer0.occupancy        34929801567                       # Layer occupancy (ticks)
system.tol3bus.reqLayer0.utilization              0.8                       # Layer utilization (%)
system.tol3bus.respLayer0.occupancy       25405393842                       # Layer occupancy (ticks)
system.tol3bus.respLayer0.utilization             0.6                       # Layer utilization (%)

---------- End Simulation Statistics   ----------
