
---------- Begin Simulation Statistics ----------
sim_seconds                                  1.006446                       # Number of seconds simulated
sim_ticks                                1006446292254                       # Number of ticks simulated
final_tick                               111332665046511                       # Number of ticks from beginning of simulation (restored from checkpoints and never reset)
sim_freq                                 1000000000000                       # Frequency of simulated ticks
host_inst_rate                                 624227                       # Simulator instruction rate (inst/s)
host_op_rate                                   624227                       # Simulator op (including micro ops) rate (op/s)
host_tick_rate                              523542703                       # Simulator tick rate (ticks/s)
host_mem_usage                                2384216                       # Number of bytes of host memory used
host_seconds                                  1922.38                       # Real time elapsed on the host
sim_insts                                  1200000011                       # Number of instructions simulated
sim_ops                                    1200000011                       # Number of ops (including micro ops) simulated
system.voltage_domain.voltage                       1                       # Voltage in Volts
system.clk_domain.clock                          1000                       # Clock period in ticks
system.mem_ctrls0.pwrStateResidencyTicks::UNDEFINED 111332665046511                       # Cumulative time (in ticks) in various power states
system.mem_ctrls0.bytes_read::cpu.inst            128                       # Number of bytes read from this memory
system.mem_ctrls0.bytes_read::cpu.data            192                       # Number of bytes read from this memory
system.mem_ctrls0.bytes_read::switch_cpus.inst        16576                       # Number of bytes read from this memory
system.mem_ctrls0.bytes_read::switch_cpus.data      2455552                       # Number of bytes read from this memory
system.mem_ctrls0.bytes_read::switch_cpus_1.inst         5056                       # Number of bytes read from this memory
system.mem_ctrls0.bytes_read::switch_cpus_1.data      2009600                       # Number of bytes read from this memory
system.mem_ctrls0.bytes_read::total           4487104                       # Number of bytes read from this memory
system.mem_ctrls0.bytes_inst_read::cpu.inst          128                       # Number of instructions bytes read from this memory
system.mem_ctrls0.bytes_inst_read::switch_cpus.inst        16576                       # Number of instructions bytes read from this memory
system.mem_ctrls0.bytes_inst_read::switch_cpus_1.inst         5056                       # Number of instructions bytes read from this memory
system.mem_ctrls0.bytes_inst_read::total        21760                       # Number of instructions bytes read from this memory
system.mem_ctrls0.bytes_written::writebacks      2323712                       # Number of bytes written to this memory
system.mem_ctrls0.bytes_written::total        2323712                       # Number of bytes written to this memory
system.mem_ctrls0.num_reads::cpu.inst               2                       # Number of read requests responded to by this memory
system.mem_ctrls0.num_reads::cpu.data               3                       # Number of read requests responded to by this memory
system.mem_ctrls0.num_reads::switch_cpus.inst          259                       # Number of read requests responded to by this memory
system.mem_ctrls0.num_reads::switch_cpus.data        38368                       # Number of read requests responded to by this memory
system.mem_ctrls0.num_reads::switch_cpus_1.inst           79                       # Number of read requests responded to by this memory
system.mem_ctrls0.num_reads::switch_cpus_1.data        31400                       # Number of read requests responded to by this memory
system.mem_ctrls0.num_reads::total              70111                       # Number of read requests responded to by this memory
system.mem_ctrls0.num_writes::writebacks        36308                       # Number of write requests responded to by this memory
system.mem_ctrls0.num_writes::total             36308                       # Number of write requests responded to by this memory
system.mem_ctrls0.bw_read::cpu.inst               127                       # Total read bandwidth from this memory (bytes/s)
system.mem_ctrls0.bw_read::cpu.data               191                       # Total read bandwidth from this memory (bytes/s)
system.mem_ctrls0.bw_read::switch_cpus.inst        16470                       # Total read bandwidth from this memory (bytes/s)
system.mem_ctrls0.bw_read::switch_cpus.data      2439824                       # Total read bandwidth from this memory (bytes/s)
system.mem_ctrls0.bw_read::switch_cpus_1.inst         5024                       # Total read bandwidth from this memory (bytes/s)
system.mem_ctrls0.bw_read::switch_cpus_1.data      1996729                       # Total read bandwidth from this memory (bytes/s)
system.mem_ctrls0.bw_read::total              4458364                       # Total read bandwidth from this memory (bytes/s)
system.mem_ctrls0.bw_inst_read::cpu.inst          127                       # Instruction read bandwidth from this memory (bytes/s)
system.mem_ctrls0.bw_inst_read::switch_cpus.inst        16470                       # Instruction read bandwidth from this memory (bytes/s)
system.mem_ctrls0.bw_inst_read::switch_cpus_1.inst         5024                       # Instruction read bandwidth from this memory (bytes/s)
system.mem_ctrls0.bw_inst_read::total           21621                       # Instruction read bandwidth from this memory (bytes/s)
system.mem_ctrls0.bw_write::writebacks        2308829                       # Write bandwidth from this memory (bytes/s)
system.mem_ctrls0.bw_write::total             2308829                       # Write bandwidth from this memory (bytes/s)
system.mem_ctrls0.bw_total::writebacks        2308829                       # Total bandwidth to/from this memory (bytes/s)
system.mem_ctrls0.bw_total::cpu.inst              127                       # Total bandwidth to/from this memory (bytes/s)
system.mem_ctrls0.bw_total::cpu.data              191                       # Total bandwidth to/from this memory (bytes/s)
system.mem_ctrls0.bw_total::switch_cpus.inst        16470                       # Total bandwidth to/from this memory (bytes/s)
system.mem_ctrls0.bw_total::switch_cpus.data      2439824                       # Total bandwidth to/from this memory (bytes/s)
system.mem_ctrls0.bw_total::switch_cpus_1.inst         5024                       # Total bandwidth to/from this memory (bytes/s)
system.mem_ctrls0.bw_total::switch_cpus_1.data      1996729                       # Total bandwidth to/from this memory (bytes/s)
system.mem_ctrls0.bw_total::total             6767193                       # Total bandwidth to/from this memory (bytes/s)
system.mem_ctrls0.readReqs                      70111                       # Number of read requests accepted
system.mem_ctrls0.writeReqs                     36308                       # Number of write requests accepted
system.mem_ctrls0.readBursts                    70111                       # Number of DRAM read bursts, including those serviced by the write queue
system.mem_ctrls0.writeBursts                   36308                       # Number of DRAM write bursts, including those merged in the write queue
system.mem_ctrls0.bytesReadDRAM               4482176                       # Total number of bytes read from DRAM
system.mem_ctrls0.bytesReadWrQ                   4928                       # Total number of bytes read from write queue
system.mem_ctrls0.bytesWritten                2322560                       # Total number of bytes written to DRAM
system.mem_ctrls0.bytesReadSys                4487104                       # Total read bytes from the system interface side
system.mem_ctrls0.bytesWrittenSys             2323712                       # Total written bytes from the system interface side
system.mem_ctrls0.servicedByWrQ                    77                       # Number of DRAM read bursts serviced by the write queue
system.mem_ctrls0.mergedWrBursts                    0                       # Number of DRAM write bursts merged with an existing one
system.mem_ctrls0.neitherReadNorWriteReqs            0                       # Number of requests that are neither read nor write
system.mem_ctrls0.perBankRdBursts::0             4377                       # Per bank write bursts
system.mem_ctrls0.perBankRdBursts::1             3778                       # Per bank write bursts
system.mem_ctrls0.perBankRdBursts::2             4047                       # Per bank write bursts
system.mem_ctrls0.perBankRdBursts::3             5078                       # Per bank write bursts
system.mem_ctrls0.perBankRdBursts::4             4955                       # Per bank write bursts
system.mem_ctrls0.perBankRdBursts::5             4308                       # Per bank write bursts
system.mem_ctrls0.perBankRdBursts::6             3995                       # Per bank write bursts
system.mem_ctrls0.perBankRdBursts::7             4544                       # Per bank write bursts
system.mem_ctrls0.perBankRdBursts::8             4400                       # Per bank write bursts
system.mem_ctrls0.perBankRdBursts::9             3935                       # Per bank write bursts
system.mem_ctrls0.perBankRdBursts::10            4397                       # Per bank write bursts
system.mem_ctrls0.perBankRdBursts::11            4639                       # Per bank write bursts
system.mem_ctrls0.perBankRdBursts::12            4873                       # Per bank write bursts
system.mem_ctrls0.perBankRdBursts::13            4283                       # Per bank write bursts
system.mem_ctrls0.perBankRdBursts::14            4098                       # Per bank write bursts
system.mem_ctrls0.perBankRdBursts::15            4327                       # Per bank write bursts
system.mem_ctrls0.perBankWrBursts::0             2290                       # Per bank write bursts
system.mem_ctrls0.perBankWrBursts::1             1638                       # Per bank write bursts
system.mem_ctrls0.perBankWrBursts::2             2022                       # Per bank write bursts
system.mem_ctrls0.perBankWrBursts::3             2856                       # Per bank write bursts
system.mem_ctrls0.perBankWrBursts::4             2923                       # Per bank write bursts
system.mem_ctrls0.perBankWrBursts::5             2311                       # Per bank write bursts
system.mem_ctrls0.perBankWrBursts::6             1809                       # Per bank write bursts
system.mem_ctrls0.perBankWrBursts::7             2386                       # Per bank write bursts
system.mem_ctrls0.perBankWrBursts::8             2256                       # Per bank write bursts
system.mem_ctrls0.perBankWrBursts::9             1871                       # Per bank write bursts
system.mem_ctrls0.perBankWrBursts::10            2230                       # Per bank write bursts
system.mem_ctrls0.perBankWrBursts::11            2631                       # Per bank write bursts
system.mem_ctrls0.perBankWrBursts::12            2690                       # Per bank write bursts
system.mem_ctrls0.perBankWrBursts::13            2107                       # Per bank write bursts
system.mem_ctrls0.perBankWrBursts::14            1994                       # Per bank write bursts
system.mem_ctrls0.perBankWrBursts::15            2276                       # Per bank write bursts
system.mem_ctrls0.numRdRetry                        0                       # Number of times read queue was full causing retry
system.mem_ctrls0.numWrRetry                        0                       # Number of times write queue was full causing retry
system.mem_ctrls0.totGap                 1006436991897                       # Total gap between requests
system.mem_ctrls0.readPktSize::0                    0                       # Read request sizes (log2)
system.mem_ctrls0.readPktSize::1                    0                       # Read request sizes (log2)
system.mem_ctrls0.readPktSize::2                    0                       # Read request sizes (log2)
system.mem_ctrls0.readPktSize::3                    0                       # Read request sizes (log2)
system.mem_ctrls0.readPktSize::4                    0                       # Read request sizes (log2)
system.mem_ctrls0.readPktSize::5                    0                       # Read request sizes (log2)
system.mem_ctrls0.readPktSize::6                70111                       # Read request sizes (log2)
system.mem_ctrls0.writePktSize::0                   0                       # Write request sizes (log2)
system.mem_ctrls0.writePktSize::1                   0                       # Write request sizes (log2)
system.mem_ctrls0.writePktSize::2                   0                       # Write request sizes (log2)
system.mem_ctrls0.writePktSize::3                   0                       # Write request sizes (log2)
system.mem_ctrls0.writePktSize::4                   0                       # Write request sizes (log2)
system.mem_ctrls0.writePktSize::5                   0                       # Write request sizes (log2)
system.mem_ctrls0.writePktSize::6               36308                       # Write request sizes (log2)
system.mem_ctrls0.rdQLenPdf::0                  65324                       # What read queue length does an incoming req see
system.mem_ctrls0.rdQLenPdf::1                   4525                       # What read queue length does an incoming req see
system.mem_ctrls0.rdQLenPdf::2                    185                       # What read queue length does an incoming req see
system.mem_ctrls0.rdQLenPdf::3                      0                       # What read queue length does an incoming req see
system.mem_ctrls0.rdQLenPdf::4                      0                       # What read queue length does an incoming req see
system.mem_ctrls0.rdQLenPdf::5                      0                       # What read queue length does an incoming req see
system.mem_ctrls0.rdQLenPdf::6                      0                       # What read queue length does an incoming req see
system.mem_ctrls0.rdQLenPdf::7                      0                       # What read queue length does an incoming req see
system.mem_ctrls0.rdQLenPdf::8                      0                       # What read queue length does an incoming req see
system.mem_ctrls0.rdQLenPdf::9                      0                       # What read queue length does an incoming req see
system.mem_ctrls0.rdQLenPdf::10                     0                       # What read queue length does an incoming req see
system.mem_ctrls0.rdQLenPdf::11                     0                       # What read queue length does an incoming req see
system.mem_ctrls0.rdQLenPdf::12                     0                       # What read queue length does an incoming req see
system.mem_ctrls0.rdQLenPdf::13                     0                       # What read queue length does an incoming req see
system.mem_ctrls0.rdQLenPdf::14                     0                       # What read queue length does an incoming req see
system.mem_ctrls0.rdQLenPdf::15                     0                       # What read queue length does an incoming req see
system.mem_ctrls0.rdQLenPdf::16                     0                       # What read queue length does an incoming req see
system.mem_ctrls0.rdQLenPdf::17                     0                       # What read queue length does an incoming req see
system.mem_ctrls0.rdQLenPdf::18                     0                       # What read queue length does an incoming req see
system.mem_ctrls0.rdQLenPdf::19                     0                       # What read queue length does an incoming req see
system.mem_ctrls0.rdQLenPdf::20                     0                       # What read queue length does an incoming req see
system.mem_ctrls0.rdQLenPdf::21                     0                       # What read queue length does an incoming req see
system.mem_ctrls0.rdQLenPdf::22                     0                       # What read queue length does an incoming req see
system.mem_ctrls0.rdQLenPdf::23                     0                       # What read queue length does an incoming req see
system.mem_ctrls0.rdQLenPdf::24                     0                       # What read queue length does an incoming req see
system.mem_ctrls0.rdQLenPdf::25                     0                       # What read queue length does an incoming req see
system.mem_ctrls0.rdQLenPdf::26                     0                       # What read queue length does an incoming req see
system.mem_ctrls0.rdQLenPdf::27                     0                       # What read queue length does an incoming req see
system.mem_ctrls0.rdQLenPdf::28                     0                       # What read queue length does an incoming req see
system.mem_ctrls0.rdQLenPdf::29                     0                       # What read queue length does an incoming req see
system.mem_ctrls0.rdQLenPdf::30                     0                       # What read queue length does an incoming req see
system.mem_ctrls0.rdQLenPdf::31                     0                       # What read queue length does an incoming req see
system.mem_ctrls0.wrQLenPdf::0                      2                       # What write queue length does an incoming req see
system.mem_ctrls0.wrQLenPdf::1                      2                       # What write queue length does an incoming req see
system.mem_ctrls0.wrQLenPdf::2                      2                       # What write queue length does an incoming req see
system.mem_ctrls0.wrQLenPdf::3                      2                       # What write queue length does an incoming req see
system.mem_ctrls0.wrQLenPdf::4                      2                       # What write queue length does an incoming req see
system.mem_ctrls0.wrQLenPdf::5                      2                       # What write queue length does an incoming req see
system.mem_ctrls0.wrQLenPdf::6                      2                       # What write queue length does an incoming req see
system.mem_ctrls0.wrQLenPdf::7                      2                       # What write queue length does an incoming req see
system.mem_ctrls0.wrQLenPdf::8                      2                       # What write queue length does an incoming req see
system.mem_ctrls0.wrQLenPdf::9                      2                       # What write queue length does an incoming req see
system.mem_ctrls0.wrQLenPdf::10                     2                       # What write queue length does an incoming req see
system.mem_ctrls0.wrQLenPdf::11                     2                       # What write queue length does an incoming req see
system.mem_ctrls0.wrQLenPdf::12                     2                       # What write queue length does an incoming req see
system.mem_ctrls0.wrQLenPdf::13                     2                       # What write queue length does an incoming req see
system.mem_ctrls0.wrQLenPdf::14                     2                       # What write queue length does an incoming req see
system.mem_ctrls0.wrQLenPdf::15                  1579                       # What write queue length does an incoming req see
system.mem_ctrls0.wrQLenPdf::16                  1693                       # What write queue length does an incoming req see
system.mem_ctrls0.wrQLenPdf::17                  2011                       # What write queue length does an incoming req see
system.mem_ctrls0.wrQLenPdf::18                  2060                       # What write queue length does an incoming req see
system.mem_ctrls0.wrQLenPdf::19                  2072                       # What write queue length does an incoming req see
system.mem_ctrls0.wrQLenPdf::20                  2060                       # What write queue length does an incoming req see
system.mem_ctrls0.wrQLenPdf::21                  2063                       # What write queue length does an incoming req see
system.mem_ctrls0.wrQLenPdf::22                  2066                       # What write queue length does an incoming req see
system.mem_ctrls0.wrQLenPdf::23                  2079                       # What write queue length does an incoming req see
system.mem_ctrls0.wrQLenPdf::24                  2065                       # What write queue length does an incoming req see
system.mem_ctrls0.wrQLenPdf::25                  2061                       # What write queue length does an incoming req see
system.mem_ctrls0.wrQLenPdf::26                  2056                       # What write queue length does an incoming req see
system.mem_ctrls0.wrQLenPdf::27                  2073                       # What write queue length does an incoming req see
system.mem_ctrls0.wrQLenPdf::28                  2066                       # What write queue length does an incoming req see
system.mem_ctrls0.wrQLenPdf::29                  2071                       # What write queue length does an incoming req see
system.mem_ctrls0.wrQLenPdf::30                  2118                       # What write queue length does an incoming req see
system.mem_ctrls0.wrQLenPdf::31                  2030                       # What write queue length does an incoming req see
system.mem_ctrls0.wrQLenPdf::32                  2030                       # What write queue length does an incoming req see
system.mem_ctrls0.wrQLenPdf::33                    20                       # What write queue length does an incoming req see
system.mem_ctrls0.wrQLenPdf::34                     5                       # What write queue length does an incoming req see
system.mem_ctrls0.wrQLenPdf::35                     0                       # What write queue length does an incoming req see
system.mem_ctrls0.wrQLenPdf::36                     0                       # What write queue length does an incoming req see
system.mem_ctrls0.wrQLenPdf::37                     0                       # What write queue length does an incoming req see
system.mem_ctrls0.wrQLenPdf::38                     0                       # What write queue length does an incoming req see
system.mem_ctrls0.wrQLenPdf::39                     0                       # What write queue length does an incoming req see
system.mem_ctrls0.wrQLenPdf::40                     0                       # What write queue length does an incoming req see
system.mem_ctrls0.wrQLenPdf::41                     0                       # What write queue length does an incoming req see
system.mem_ctrls0.wrQLenPdf::42                     0                       # What write queue length does an incoming req see
system.mem_ctrls0.wrQLenPdf::43                     0                       # What write queue length does an incoming req see
system.mem_ctrls0.wrQLenPdf::44                     0                       # What write queue length does an incoming req see
system.mem_ctrls0.wrQLenPdf::45                     0                       # What write queue length does an incoming req see
system.mem_ctrls0.wrQLenPdf::46                     0                       # What write queue length does an incoming req see
system.mem_ctrls0.wrQLenPdf::47                     0                       # What write queue length does an incoming req see
system.mem_ctrls0.wrQLenPdf::48                     0                       # What write queue length does an incoming req see
system.mem_ctrls0.wrQLenPdf::49                     0                       # What write queue length does an incoming req see
system.mem_ctrls0.wrQLenPdf::50                     0                       # What write queue length does an incoming req see
system.mem_ctrls0.wrQLenPdf::51                     0                       # What write queue length does an incoming req see
system.mem_ctrls0.wrQLenPdf::52                     0                       # What write queue length does an incoming req see
system.mem_ctrls0.wrQLenPdf::53                     0                       # What write queue length does an incoming req see
system.mem_ctrls0.wrQLenPdf::54                     0                       # What write queue length does an incoming req see
system.mem_ctrls0.wrQLenPdf::55                     0                       # What write queue length does an incoming req see
system.mem_ctrls0.wrQLenPdf::56                     0                       # What write queue length does an incoming req see
system.mem_ctrls0.wrQLenPdf::57                     0                       # What write queue length does an incoming req see
system.mem_ctrls0.wrQLenPdf::58                     0                       # What write queue length does an incoming req see
system.mem_ctrls0.wrQLenPdf::59                     0                       # What write queue length does an incoming req see
system.mem_ctrls0.wrQLenPdf::60                     0                       # What write queue length does an incoming req see
system.mem_ctrls0.wrQLenPdf::61                     0                       # What write queue length does an incoming req see
system.mem_ctrls0.wrQLenPdf::62                     0                       # What write queue length does an incoming req see
system.mem_ctrls0.wrQLenPdf::63                     0                       # What write queue length does an incoming req see
system.mem_ctrls0.bytesPerActivate::samples        50134                       # Bytes accessed per row activation
system.mem_ctrls0.bytesPerActivate::mean   135.730961                       # Bytes accessed per row activation
system.mem_ctrls0.bytesPerActivate::gmean   109.999302                       # Bytes accessed per row activation
system.mem_ctrls0.bytesPerActivate::stdev   115.927332                       # Bytes accessed per row activation
system.mem_ctrls0.bytesPerActivate::0-127        22856     45.59%     45.59% # Bytes accessed per row activation
system.mem_ctrls0.bytesPerActivate::128-255        22480     44.84%     90.43% # Bytes accessed per row activation
system.mem_ctrls0.bytesPerActivate::256-383         2391      4.77%     95.20% # Bytes accessed per row activation
system.mem_ctrls0.bytesPerActivate::384-511          999      1.99%     97.19% # Bytes accessed per row activation
system.mem_ctrls0.bytesPerActivate::512-639          656      1.31%     98.50% # Bytes accessed per row activation
system.mem_ctrls0.bytesPerActivate::640-767          392      0.78%     99.28% # Bytes accessed per row activation
system.mem_ctrls0.bytesPerActivate::768-895          235      0.47%     99.75% # Bytes accessed per row activation
system.mem_ctrls0.bytesPerActivate::896-1023           85      0.17%     99.92% # Bytes accessed per row activation
system.mem_ctrls0.bytesPerActivate::1024-1151           40      0.08%    100.00% # Bytes accessed per row activation
system.mem_ctrls0.bytesPerActivate::total        50134                       # Bytes accessed per row activation
system.mem_ctrls0.rdPerTurnAround::samples         2031                       # Reads before turning the bus around for writes
system.mem_ctrls0.rdPerTurnAround::mean     34.482521                       # Reads before turning the bus around for writes
system.mem_ctrls0.rdPerTurnAround::stdev   708.882200                       # Reads before turning the bus around for writes
system.mem_ctrls0.rdPerTurnAround::0-1023         2030     99.95%     99.95% # Reads before turning the bus around for writes
system.mem_ctrls0.rdPerTurnAround::31744-32767            1      0.05%    100.00% # Reads before turning the bus around for writes
system.mem_ctrls0.rdPerTurnAround::total         2031                       # Reads before turning the bus around for writes
system.mem_ctrls0.wrPerTurnAround::samples         2031                       # Writes before turning the bus around for reads
system.mem_ctrls0.wrPerTurnAround::mean     17.868045                       # Writes before turning the bus around for reads
system.mem_ctrls0.wrPerTurnAround::gmean    17.835736                       # Writes before turning the bus around for reads
system.mem_ctrls0.wrPerTurnAround::stdev     1.069192                       # Writes before turning the bus around for reads
system.mem_ctrls0.wrPerTurnAround::16             366     18.02%     18.02% # Writes before turning the bus around for reads
system.mem_ctrls0.wrPerTurnAround::17              66      3.25%     21.27% # Writes before turning the bus around for reads
system.mem_ctrls0.wrPerTurnAround::18            1177     57.95%     79.22% # Writes before turning the bus around for reads
system.mem_ctrls0.wrPerTurnAround::19             339     16.69%     95.91% # Writes before turning the bus around for reads
system.mem_ctrls0.wrPerTurnAround::20              66      3.25%     99.16% # Writes before turning the bus around for reads
system.mem_ctrls0.wrPerTurnAround::21              13      0.64%     99.80% # Writes before turning the bus around for reads
system.mem_ctrls0.wrPerTurnAround::22               2      0.10%     99.90% # Writes before turning the bus around for reads
system.mem_ctrls0.wrPerTurnAround::23               1      0.05%     99.95% # Writes before turning the bus around for reads
system.mem_ctrls0.wrPerTurnAround::25               1      0.05%    100.00% # Writes before turning the bus around for reads
system.mem_ctrls0.wrPerTurnAround::total         2031                       # Writes before turning the bus around for reads
system.mem_ctrls0.totQLat                  1401873362                       # Total ticks spent queuing
system.mem_ctrls0.totMemAccLat             2715010862                       # Total ticks spent from burst creation until serviced by the DRAM
system.mem_ctrls0.totBusLat                 350170000                       # Total ticks spent in databus transfers
system.mem_ctrls0.avgQLat                    20017.04                       # Average queueing delay per DRAM burst
system.mem_ctrls0.avgBusLat                   5000.00                       # Average bus latency per DRAM burst
system.mem_ctrls0.avgMemAccLat               38767.04                       # Average memory access latency per DRAM burst
system.mem_ctrls0.avgRdBW                        4.45                       # Average DRAM read bandwidth in MiByte/s
system.mem_ctrls0.avgWrBW                        2.31                       # Average achieved write bandwidth in MiByte/s
system.mem_ctrls0.avgRdBWSys                     4.46                       # Average system read bandwidth in MiByte/s
system.mem_ctrls0.avgWrBWSys                     2.31                       # Average system write bandwidth in MiByte/s
system.mem_ctrls0.peakBW                     12800.00                       # Theoretical peak bandwidth in MiByte/s
system.mem_ctrls0.busUtil                        0.05                       # Data bus utilization in percentage
system.mem_ctrls0.busUtilRead                    0.03                       # Data bus utilization in percentage for reads
system.mem_ctrls0.busUtilWrite                   0.02                       # Data bus utilization in percentage for writes
system.mem_ctrls0.avgRdQLen                      1.00                       # Average read queue length when enqueuing
system.mem_ctrls0.avgWrQLen                      0.79                       # Average write queue length when enqueuing
system.mem_ctrls0.readRowHits                   45894                       # Number of row buffer hits during reads
system.mem_ctrls0.writeRowHits                  10296                       # Number of row buffer hits during writes
system.mem_ctrls0.readRowHitRate                65.53                       # Row buffer hit rate for reads
system.mem_ctrls0.writeRowHitRate               28.36                       # Row buffer hit rate for writes
system.mem_ctrls0.avgGap                   9457305.48                       # Average gap between requests
system.mem_ctrls0.pageHitRate                   52.84                       # Row buffer hit rate, read and write combined
system.mem_ctrls0_0.actEnergy               179471040                       # Energy for activate commands per rank (pJ)
system.mem_ctrls0_0.preEnergy                95391120                       # Energy for precharge commands per rank (pJ)
system.mem_ctrls0_0.readEnergy              250485480                       # Energy for read commands per rank (pJ)
system.mem_ctrls0_0.writeEnergy              95186700                       # Energy for write commands per rank (pJ)
system.mem_ctrls0_0.refreshEnergy        4565545920.000001                       # Energy for refresh commands per rank (pJ)
system.mem_ctrls0_0.actBackEnergy          2214322890                       # Energy for active background per rank (pJ)
system.mem_ctrls0_0.preBackEnergy           122267520                       # Energy for precharge background per rank (pJ)
system.mem_ctrls0_0.actPowerDownEnergy    18069389880                       # Energy for active power-down per rank (pJ)
system.mem_ctrls0_0.prePowerDownEnergy     4256737440                       # Energy for precharge power-down per rank (pJ)
system.mem_ctrls0_0.selfRefreshEnergy    228283263180                       # Energy for self refresh per rank (pJ)
system.mem_ctrls0_0.totalEnergy          258132391800                       # Total energy per rank (pJ)
system.mem_ctrls0_0.averagePower           256.479053                       # Core power per rank (mW)
system.mem_ctrls0_0.totalIdleTime        1001244757487                       # Total Idle time Per DRAM Rank
system.mem_ctrls0_0.memoryStateTime::IDLE    116734449                       # Time in different power states
system.mem_ctrls0_0.memoryStateTime::REF   1932972000                       # Time in different power states
system.mem_ctrls0_0.memoryStateTime::SREF 950560078504                       # Time in different power states
system.mem_ctrls0_0.memoryStateTime::PRE_PDN  11084495275                       # Time in different power states
system.mem_ctrls0_0.memoryStateTime::ACT   3124469373                       # Time in different power states
system.mem_ctrls0_0.memoryStateTime::ACT_PDN  39627542653                       # Time in different power states
system.mem_ctrls0_1.actEnergy               178485720                       # Energy for activate commands per rank (pJ)
system.mem_ctrls0_1.preEnergy                94867410                       # Energy for precharge commands per rank (pJ)
system.mem_ctrls0_1.readEnergy              249557280                       # Energy for read commands per rank (pJ)
system.mem_ctrls0_1.writeEnergy              94247100                       # Energy for write commands per rank (pJ)
system.mem_ctrls0_1.refreshEnergy        4486872000.000001                       # Energy for refresh commands per rank (pJ)
system.mem_ctrls0_1.actBackEnergy          2226093960                       # Energy for active background per rank (pJ)
system.mem_ctrls0_1.preBackEnergy           119220000                       # Energy for precharge background per rank (pJ)
system.mem_ctrls0_1.actPowerDownEnergy    17722762050                       # Energy for active power-down per rank (pJ)
system.mem_ctrls0_1.prePowerDownEnergy     4250784000                       # Energy for precharge power-down per rank (pJ)
system.mem_ctrls0_1.selfRefreshEnergy    228446992875                       # Energy for self refresh per rank (pJ)
system.mem_ctrls0_1.totalEnergy          257870384475                       # Total energy per rank (pJ)
system.mem_ctrls0_1.averagePower           256.218724                       # Core power per rank (mW)
system.mem_ctrls0_1.totalIdleTime        1001224374283                       # Total Idle time Per DRAM Rank
system.mem_ctrls0_1.memoryStateTime::IDLE    112450175                       # Time in different power states
system.mem_ctrls0_1.memoryStateTime::REF   1899458000                       # Time in different power states
system.mem_ctrls0_1.memoryStateTime::SREF 951317460254                       # Time in different power states
system.mem_ctrls0_1.memoryStateTime::PRE_PDN  11069209793                       # Time in different power states
system.mem_ctrls0_1.memoryStateTime::ACT   3182657178                       # Time in different power states
system.mem_ctrls0_1.memoryStateTime::ACT_PDN  38865056854                       # Time in different power states
system.mem_ctrls1.pwrStateResidencyTicks::UNDEFINED 111332665046511                       # Cumulative time (in ticks) in various power states
system.mem_ctrls1.bytes_read::cpu.inst             64                       # Number of bytes read from this memory
system.mem_ctrls1.bytes_read::cpu.data             64                       # Number of bytes read from this memory
system.mem_ctrls1.bytes_read::switch_cpus.inst        16576                       # Number of bytes read from this memory
system.mem_ctrls1.bytes_read::switch_cpus.data      2453632                       # Number of bytes read from this memory
system.mem_ctrls1.bytes_read::switch_cpus_1.inst         4352                       # Number of bytes read from this memory
system.mem_ctrls1.bytes_read::switch_cpus_1.data      2003392                       # Number of bytes read from this memory
system.mem_ctrls1.bytes_read::total           4478080                       # Number of bytes read from this memory
system.mem_ctrls1.bytes_inst_read::cpu.inst           64                       # Number of instructions bytes read from this memory
system.mem_ctrls1.bytes_inst_read::switch_cpus.inst        16576                       # Number of instructions bytes read from this memory
system.mem_ctrls1.bytes_inst_read::switch_cpus_1.inst         4352                       # Number of instructions bytes read from this memory
system.mem_ctrls1.bytes_inst_read::total        20992                       # Number of instructions bytes read from this memory
system.mem_ctrls1.bytes_written::writebacks      2313536                       # Number of bytes written to this memory
system.mem_ctrls1.bytes_written::total        2313536                       # Number of bytes written to this memory
system.mem_ctrls1.num_reads::cpu.inst               1                       # Number of read requests responded to by this memory
system.mem_ctrls1.num_reads::cpu.data               1                       # Number of read requests responded to by this memory
system.mem_ctrls1.num_reads::switch_cpus.inst          259                       # Number of read requests responded to by this memory
system.mem_ctrls1.num_reads::switch_cpus.data        38338                       # Number of read requests responded to by this memory
system.mem_ctrls1.num_reads::switch_cpus_1.inst           68                       # Number of read requests responded to by this memory
system.mem_ctrls1.num_reads::switch_cpus_1.data        31303                       # Number of read requests responded to by this memory
system.mem_ctrls1.num_reads::total              69970                       # Number of read requests responded to by this memory
system.mem_ctrls1.num_writes::writebacks        36149                       # Number of write requests responded to by this memory
system.mem_ctrls1.num_writes::total             36149                       # Number of write requests responded to by this memory
system.mem_ctrls1.bw_read::cpu.inst                64                       # Total read bandwidth from this memory (bytes/s)
system.mem_ctrls1.bw_read::cpu.data                64                       # Total read bandwidth from this memory (bytes/s)
system.mem_ctrls1.bw_read::switch_cpus.inst        16470                       # Total read bandwidth from this memory (bytes/s)
system.mem_ctrls1.bw_read::switch_cpus.data      2437916                       # Total read bandwidth from this memory (bytes/s)
system.mem_ctrls1.bw_read::switch_cpus_1.inst         4324                       # Total read bandwidth from this memory (bytes/s)
system.mem_ctrls1.bw_read::switch_cpus_1.data      1990560                       # Total read bandwidth from this memory (bytes/s)
system.mem_ctrls1.bw_read::total              4449398                       # Total read bandwidth from this memory (bytes/s)
system.mem_ctrls1.bw_inst_read::cpu.inst           64                       # Instruction read bandwidth from this memory (bytes/s)
system.mem_ctrls1.bw_inst_read::switch_cpus.inst        16470                       # Instruction read bandwidth from this memory (bytes/s)
system.mem_ctrls1.bw_inst_read::switch_cpus_1.inst         4324                       # Instruction read bandwidth from this memory (bytes/s)
system.mem_ctrls1.bw_inst_read::total           20858                       # Instruction read bandwidth from this memory (bytes/s)
system.mem_ctrls1.bw_write::writebacks        2298718                       # Write bandwidth from this memory (bytes/s)
system.mem_ctrls1.bw_write::total             2298718                       # Write bandwidth from this memory (bytes/s)
system.mem_ctrls1.bw_total::writebacks        2298718                       # Total bandwidth to/from this memory (bytes/s)
system.mem_ctrls1.bw_total::cpu.inst               64                       # Total bandwidth to/from this memory (bytes/s)
system.mem_ctrls1.bw_total::cpu.data               64                       # Total bandwidth to/from this memory (bytes/s)
system.mem_ctrls1.bw_total::switch_cpus.inst        16470                       # Total bandwidth to/from this memory (bytes/s)
system.mem_ctrls1.bw_total::switch_cpus.data      2437916                       # Total bandwidth to/from this memory (bytes/s)
system.mem_ctrls1.bw_total::switch_cpus_1.inst         4324                       # Total bandwidth to/from this memory (bytes/s)
system.mem_ctrls1.bw_total::switch_cpus_1.data      1990560                       # Total bandwidth to/from this memory (bytes/s)
system.mem_ctrls1.bw_total::total             6748116                       # Total bandwidth to/from this memory (bytes/s)
system.mem_ctrls1.readReqs                      69970                       # Number of read requests accepted
system.mem_ctrls1.writeReqs                     36149                       # Number of write requests accepted
system.mem_ctrls1.readBursts                    69970                       # Number of DRAM read bursts, including those serviced by the write queue
system.mem_ctrls1.writeBursts                   36149                       # Number of DRAM write bursts, including those merged in the write queue
system.mem_ctrls1.bytesReadDRAM               4474304                       # Total number of bytes read from DRAM
system.mem_ctrls1.bytesReadWrQ                   3776                       # Total number of bytes read from write queue
system.mem_ctrls1.bytesWritten                2312448                       # Total number of bytes written to DRAM
system.mem_ctrls1.bytesReadSys                4478080                       # Total read bytes from the system interface side
system.mem_ctrls1.bytesWrittenSys             2313536                       # Total written bytes from the system interface side
system.mem_ctrls1.servicedByWrQ                    59                       # Number of DRAM read bursts serviced by the write queue
system.mem_ctrls1.mergedWrBursts                    0                       # Number of DRAM write bursts merged with an existing one
system.mem_ctrls1.neitherReadNorWriteReqs            0                       # Number of requests that are neither read nor write
system.mem_ctrls1.perBankRdBursts::0             4316                       # Per bank write bursts
system.mem_ctrls1.perBankRdBursts::1             3779                       # Per bank write bursts
system.mem_ctrls1.perBankRdBursts::2             4044                       # Per bank write bursts
system.mem_ctrls1.perBankRdBursts::3             5005                       # Per bank write bursts
system.mem_ctrls1.perBankRdBursts::4             4928                       # Per bank write bursts
system.mem_ctrls1.perBankRdBursts::5             4376                       # Per bank write bursts
system.mem_ctrls1.perBankRdBursts::6             3996                       # Per bank write bursts
system.mem_ctrls1.perBankRdBursts::7             4520                       # Per bank write bursts
system.mem_ctrls1.perBankRdBursts::8             4419                       # Per bank write bursts
system.mem_ctrls1.perBankRdBursts::9             3926                       # Per bank write bursts
system.mem_ctrls1.perBankRdBursts::10            4367                       # Per bank write bursts
system.mem_ctrls1.perBankRdBursts::11            4602                       # Per bank write bursts
system.mem_ctrls1.perBankRdBursts::12            4878                       # Per bank write bursts
system.mem_ctrls1.perBankRdBursts::13            4305                       # Per bank write bursts
system.mem_ctrls1.perBankRdBursts::14            4095                       # Per bank write bursts
system.mem_ctrls1.perBankRdBursts::15            4355                       # Per bank write bursts
system.mem_ctrls1.perBankWrBursts::0             2216                       # Per bank write bursts
system.mem_ctrls1.perBankWrBursts::1             1648                       # Per bank write bursts
system.mem_ctrls1.perBankWrBursts::2             2018                       # Per bank write bursts
system.mem_ctrls1.perBankWrBursts::3             2786                       # Per bank write bursts
system.mem_ctrls1.perBankWrBursts::4             2890                       # Per bank write bursts
system.mem_ctrls1.perBankWrBursts::5             2355                       # Per bank write bursts
system.mem_ctrls1.perBankWrBursts::6             1829                       # Per bank write bursts
system.mem_ctrls1.perBankWrBursts::7             2367                       # Per bank write bursts
system.mem_ctrls1.perBankWrBursts::8             2284                       # Per bank write bursts
system.mem_ctrls1.perBankWrBursts::9             1854                       # Per bank write bursts
system.mem_ctrls1.perBankWrBursts::10            2210                       # Per bank write bursts
system.mem_ctrls1.perBankWrBursts::11            2582                       # Per bank write bursts
system.mem_ctrls1.perBankWrBursts::12            2700                       # Per bank write bursts
system.mem_ctrls1.perBankWrBursts::13            2101                       # Per bank write bursts
system.mem_ctrls1.perBankWrBursts::14            1983                       # Per bank write bursts
system.mem_ctrls1.perBankWrBursts::15            2309                       # Per bank write bursts
system.mem_ctrls1.numRdRetry                        0                       # Number of times read queue was full causing retry
system.mem_ctrls1.numWrRetry                        0                       # Number of times write queue was full causing retry
system.mem_ctrls1.totGap                 1006445748798                       # Total gap between requests
system.mem_ctrls1.readPktSize::0                    0                       # Read request sizes (log2)
system.mem_ctrls1.readPktSize::1                    0                       # Read request sizes (log2)
system.mem_ctrls1.readPktSize::2                    0                       # Read request sizes (log2)
system.mem_ctrls1.readPktSize::3                    0                       # Read request sizes (log2)
system.mem_ctrls1.readPktSize::4                    0                       # Read request sizes (log2)
system.mem_ctrls1.readPktSize::5                    0                       # Read request sizes (log2)
system.mem_ctrls1.readPktSize::6                69970                       # Read request sizes (log2)
system.mem_ctrls1.writePktSize::0                   0                       # Write request sizes (log2)
system.mem_ctrls1.writePktSize::1                   0                       # Write request sizes (log2)
system.mem_ctrls1.writePktSize::2                   0                       # Write request sizes (log2)
system.mem_ctrls1.writePktSize::3                   0                       # Write request sizes (log2)
system.mem_ctrls1.writePktSize::4                   0                       # Write request sizes (log2)
system.mem_ctrls1.writePktSize::5                   0                       # Write request sizes (log2)
system.mem_ctrls1.writePktSize::6               36149                       # Write request sizes (log2)
system.mem_ctrls1.rdQLenPdf::0                  65298                       # What read queue length does an incoming req see
system.mem_ctrls1.rdQLenPdf::1                   4429                       # What read queue length does an incoming req see
system.mem_ctrls1.rdQLenPdf::2                    184                       # What read queue length does an incoming req see
system.mem_ctrls1.rdQLenPdf::3                      0                       # What read queue length does an incoming req see
system.mem_ctrls1.rdQLenPdf::4                      0                       # What read queue length does an incoming req see
system.mem_ctrls1.rdQLenPdf::5                      0                       # What read queue length does an incoming req see
system.mem_ctrls1.rdQLenPdf::6                      0                       # What read queue length does an incoming req see
system.mem_ctrls1.rdQLenPdf::7                      0                       # What read queue length does an incoming req see
system.mem_ctrls1.rdQLenPdf::8                      0                       # What read queue length does an incoming req see
system.mem_ctrls1.rdQLenPdf::9                      0                       # What read queue length does an incoming req see
system.mem_ctrls1.rdQLenPdf::10                     0                       # What read queue length does an incoming req see
system.mem_ctrls1.rdQLenPdf::11                     0                       # What read queue length does an incoming req see
system.mem_ctrls1.rdQLenPdf::12                     0                       # What read queue length does an incoming req see
system.mem_ctrls1.rdQLenPdf::13                     0                       # What read queue length does an incoming req see
system.mem_ctrls1.rdQLenPdf::14                     0                       # What read queue length does an incoming req see
system.mem_ctrls1.rdQLenPdf::15                     0                       # What read queue length does an incoming req see
system.mem_ctrls1.rdQLenPdf::16                     0                       # What read queue length does an incoming req see
system.mem_ctrls1.rdQLenPdf::17                     0                       # What read queue length does an incoming req see
system.mem_ctrls1.rdQLenPdf::18                     0                       # What read queue length does an incoming req see
system.mem_ctrls1.rdQLenPdf::19                     0                       # What read queue length does an incoming req see
system.mem_ctrls1.rdQLenPdf::20                     0                       # What read queue length does an incoming req see
system.mem_ctrls1.rdQLenPdf::21                     0                       # What read queue length does an incoming req see
system.mem_ctrls1.rdQLenPdf::22                     0                       # What read queue length does an incoming req see
system.mem_ctrls1.rdQLenPdf::23                     0                       # What read queue length does an incoming req see
system.mem_ctrls1.rdQLenPdf::24                     0                       # What read queue length does an incoming req see
system.mem_ctrls1.rdQLenPdf::25                     0                       # What read queue length does an incoming req see
system.mem_ctrls1.rdQLenPdf::26                     0                       # What read queue length does an incoming req see
system.mem_ctrls1.rdQLenPdf::27                     0                       # What read queue length does an incoming req see
system.mem_ctrls1.rdQLenPdf::28                     0                       # What read queue length does an incoming req see
system.mem_ctrls1.rdQLenPdf::29                     0                       # What read queue length does an incoming req see
system.mem_ctrls1.rdQLenPdf::30                     0                       # What read queue length does an incoming req see
system.mem_ctrls1.rdQLenPdf::31                     0                       # What read queue length does an incoming req see
system.mem_ctrls1.wrQLenPdf::0                      2                       # What write queue length does an incoming req see
system.mem_ctrls1.wrQLenPdf::1                      2                       # What write queue length does an incoming req see
system.mem_ctrls1.wrQLenPdf::2                      2                       # What write queue length does an incoming req see
system.mem_ctrls1.wrQLenPdf::3                      2                       # What write queue length does an incoming req see
system.mem_ctrls1.wrQLenPdf::4                      2                       # What write queue length does an incoming req see
system.mem_ctrls1.wrQLenPdf::5                      2                       # What write queue length does an incoming req see
system.mem_ctrls1.wrQLenPdf::6                      2                       # What write queue length does an incoming req see
system.mem_ctrls1.wrQLenPdf::7                      2                       # What write queue length does an incoming req see
system.mem_ctrls1.wrQLenPdf::8                      2                       # What write queue length does an incoming req see
system.mem_ctrls1.wrQLenPdf::9                      2                       # What write queue length does an incoming req see
system.mem_ctrls1.wrQLenPdf::10                     2                       # What write queue length does an incoming req see
system.mem_ctrls1.wrQLenPdf::11                     2                       # What write queue length does an incoming req see
system.mem_ctrls1.wrQLenPdf::12                     2                       # What write queue length does an incoming req see
system.mem_ctrls1.wrQLenPdf::13                     2                       # What write queue length does an incoming req see
system.mem_ctrls1.wrQLenPdf::14                     2                       # What write queue length does an incoming req see
system.mem_ctrls1.wrQLenPdf::15                  1575                       # What write queue length does an incoming req see
system.mem_ctrls1.wrQLenPdf::16                  1702                       # What write queue length does an incoming req see
system.mem_ctrls1.wrQLenPdf::17                  1982                       # What write queue length does an incoming req see
system.mem_ctrls1.wrQLenPdf::18                  2041                       # What write queue length does an incoming req see
system.mem_ctrls1.wrQLenPdf::19                  2057                       # What write queue length does an incoming req see
system.mem_ctrls1.wrQLenPdf::20                  2053                       # What write queue length does an incoming req see
system.mem_ctrls1.wrQLenPdf::21                  2057                       # What write queue length does an incoming req see
system.mem_ctrls1.wrQLenPdf::22                  2059                       # What write queue length does an incoming req see
system.mem_ctrls1.wrQLenPdf::23                  2071                       # What write queue length does an incoming req see
system.mem_ctrls1.wrQLenPdf::24                  2050                       # What write queue length does an incoming req see
system.mem_ctrls1.wrQLenPdf::25                  2061                       # What write queue length does an incoming req see
system.mem_ctrls1.wrQLenPdf::26                  2054                       # What write queue length does an incoming req see
system.mem_ctrls1.wrQLenPdf::27                  2069                       # What write queue length does an incoming req see
system.mem_ctrls1.wrQLenPdf::28                  2069                       # What write queue length does an incoming req see
system.mem_ctrls1.wrQLenPdf::29                  2082                       # What write queue length does an incoming req see
system.mem_ctrls1.wrQLenPdf::30                  2081                       # What write queue length does an incoming req see
system.mem_ctrls1.wrQLenPdf::31                  2020                       # What write queue length does an incoming req see
system.mem_ctrls1.wrQLenPdf::32                  2019                       # What write queue length does an incoming req see
system.mem_ctrls1.wrQLenPdf::33                    10                       # What write queue length does an incoming req see
system.mem_ctrls1.wrQLenPdf::34                     6                       # What write queue length does an incoming req see
system.mem_ctrls1.wrQLenPdf::35                     1                       # What write queue length does an incoming req see
system.mem_ctrls1.wrQLenPdf::36                     0                       # What write queue length does an incoming req see
system.mem_ctrls1.wrQLenPdf::37                     0                       # What write queue length does an incoming req see
system.mem_ctrls1.wrQLenPdf::38                     0                       # What write queue length does an incoming req see
system.mem_ctrls1.wrQLenPdf::39                     0                       # What write queue length does an incoming req see
system.mem_ctrls1.wrQLenPdf::40                     0                       # What write queue length does an incoming req see
system.mem_ctrls1.wrQLenPdf::41                     0                       # What write queue length does an incoming req see
system.mem_ctrls1.wrQLenPdf::42                     0                       # What write queue length does an incoming req see
system.mem_ctrls1.wrQLenPdf::43                     0                       # What write queue length does an incoming req see
system.mem_ctrls1.wrQLenPdf::44                     0                       # What write queue length does an incoming req see
system.mem_ctrls1.wrQLenPdf::45                     0                       # What write queue length does an incoming req see
system.mem_ctrls1.wrQLenPdf::46                     0                       # What write queue length does an incoming req see
system.mem_ctrls1.wrQLenPdf::47                     0                       # What write queue length does an incoming req see
system.mem_ctrls1.wrQLenPdf::48                     0                       # What write queue length does an incoming req see
system.mem_ctrls1.wrQLenPdf::49                     0                       # What write queue length does an incoming req see
system.mem_ctrls1.wrQLenPdf::50                     0                       # What write queue length does an incoming req see
system.mem_ctrls1.wrQLenPdf::51                     0                       # What write queue length does an incoming req see
system.mem_ctrls1.wrQLenPdf::52                     0                       # What write queue length does an incoming req see
system.mem_ctrls1.wrQLenPdf::53                     0                       # What write queue length does an incoming req see
system.mem_ctrls1.wrQLenPdf::54                     0                       # What write queue length does an incoming req see
system.mem_ctrls1.wrQLenPdf::55                     0                       # What write queue length does an incoming req see
system.mem_ctrls1.wrQLenPdf::56                     0                       # What write queue length does an incoming req see
system.mem_ctrls1.wrQLenPdf::57                     0                       # What write queue length does an incoming req see
system.mem_ctrls1.wrQLenPdf::58                     0                       # What write queue length does an incoming req see
system.mem_ctrls1.wrQLenPdf::59                     0                       # What write queue length does an incoming req see
system.mem_ctrls1.wrQLenPdf::60                     0                       # What write queue length does an incoming req see
system.mem_ctrls1.wrQLenPdf::61                     0                       # What write queue length does an incoming req see
system.mem_ctrls1.wrQLenPdf::62                     0                       # What write queue length does an incoming req see
system.mem_ctrls1.wrQLenPdf::63                     0                       # What write queue length does an incoming req see
system.mem_ctrls1.bytesPerActivate::samples        49930                       # Bytes accessed per row activation
system.mem_ctrls1.bytesPerActivate::mean   135.925335                       # Bytes accessed per row activation
system.mem_ctrls1.bytesPerActivate::gmean   110.394682                       # Bytes accessed per row activation
system.mem_ctrls1.bytesPerActivate::stdev   114.640114                       # Bytes accessed per row activation
system.mem_ctrls1.bytesPerActivate::0-127        22581     45.23%     45.23% # Bytes accessed per row activation
system.mem_ctrls1.bytesPerActivate::128-255        22670     45.40%     90.63% # Bytes accessed per row activation
system.mem_ctrls1.bytesPerActivate::256-383         2272      4.55%     95.18% # Bytes accessed per row activation
system.mem_ctrls1.bytesPerActivate::384-511         1007      2.02%     97.20% # Bytes accessed per row activation
system.mem_ctrls1.bytesPerActivate::512-639          667      1.34%     98.53% # Bytes accessed per row activation
system.mem_ctrls1.bytesPerActivate::640-767          425      0.85%     99.38% # Bytes accessed per row activation
system.mem_ctrls1.bytesPerActivate::768-895          188      0.38%     99.76% # Bytes accessed per row activation
system.mem_ctrls1.bytesPerActivate::896-1023           96      0.19%     99.95% # Bytes accessed per row activation
system.mem_ctrls1.bytesPerActivate::1024-1151           24      0.05%    100.00% # Bytes accessed per row activation
system.mem_ctrls1.bytesPerActivate::total        49930                       # Bytes accessed per row activation
system.mem_ctrls1.rdPerTurnAround::samples         2019                       # Reads before turning the bus around for writes
system.mem_ctrls1.rdPerTurnAround::mean     34.626548                       # Reads before turning the bus around for writes
system.mem_ctrls1.rdPerTurnAround::stdev   711.144969                       # Reads before turning the bus around for writes
system.mem_ctrls1.rdPerTurnAround::0-1023         2018     99.95%     99.95% # Reads before turning the bus around for writes
system.mem_ctrls1.rdPerTurnAround::31744-32767            1      0.05%    100.00% # Reads before turning the bus around for writes
system.mem_ctrls1.rdPerTurnAround::total         2019                       # Reads before turning the bus around for writes
system.mem_ctrls1.wrPerTurnAround::samples         2019                       # Writes before turning the bus around for reads
system.mem_ctrls1.wrPerTurnAround::mean     17.895988                       # Writes before turning the bus around for reads
system.mem_ctrls1.wrPerTurnAround::gmean    17.863310                       # Writes before turning the bus around for reads
system.mem_ctrls1.wrPerTurnAround::stdev     1.078246                       # Writes before turning the bus around for reads
system.mem_ctrls1.wrPerTurnAround::16             341     16.89%     16.89% # Writes before turning the bus around for reads
system.mem_ctrls1.wrPerTurnAround::17              80      3.96%     20.85% # Writes before turning the bus around for reads
system.mem_ctrls1.wrPerTurnAround::18            1183     58.59%     79.45% # Writes before turning the bus around for reads
system.mem_ctrls1.wrPerTurnAround::19             314     15.55%     95.00% # Writes before turning the bus around for reads
system.mem_ctrls1.wrPerTurnAround::20              75      3.71%     98.71% # Writes before turning the bus around for reads
system.mem_ctrls1.wrPerTurnAround::21              19      0.94%     99.65% # Writes before turning the bus around for reads
system.mem_ctrls1.wrPerTurnAround::22               4      0.20%     99.85% # Writes before turning the bus around for reads
system.mem_ctrls1.wrPerTurnAround::23               3      0.15%    100.00% # Writes before turning the bus around for reads
system.mem_ctrls1.wrPerTurnAround::total         2019                       # Writes before turning the bus around for reads
system.mem_ctrls1.totQLat                  1388110204                       # Total ticks spent queuing
system.mem_ctrls1.totMemAccLat             2698941454                       # Total ticks spent from burst creation until serviced by the DRAM
system.mem_ctrls1.totBusLat                 349555000                       # Total ticks spent in databus transfers
system.mem_ctrls1.avgQLat                    19855.39                       # Average queueing delay per DRAM burst
system.mem_ctrls1.avgBusLat                   5000.00                       # Average bus latency per DRAM burst
system.mem_ctrls1.avgMemAccLat               38605.39                       # Average memory access latency per DRAM burst
system.mem_ctrls1.avgRdBW                        4.45                       # Average DRAM read bandwidth in MiByte/s
system.mem_ctrls1.avgWrBW                        2.30                       # Average achieved write bandwidth in MiByte/s
system.mem_ctrls1.avgRdBWSys                     4.45                       # Average system read bandwidth in MiByte/s
system.mem_ctrls1.avgWrBWSys                     2.30                       # Average system write bandwidth in MiByte/s
system.mem_ctrls1.peakBW                     12800.00                       # Theoretical peak bandwidth in MiByte/s
system.mem_ctrls1.busUtil                        0.05                       # Data bus utilization in percentage
system.mem_ctrls1.busUtilRead                    0.03                       # Data bus utilization in percentage for reads
system.mem_ctrls1.busUtilWrite                   0.02                       # Data bus utilization in percentage for writes
system.mem_ctrls1.avgRdQLen                      1.00                       # Average read queue length when enqueuing
system.mem_ctrls1.avgWrQLen                      0.78                       # Average write queue length when enqueuing
system.mem_ctrls1.readRowHits                   45891                       # Number of row buffer hits during reads
system.mem_ctrls1.writeRowHits                  10222                       # Number of row buffer hits during writes
system.mem_ctrls1.readRowHitRate                65.64                       # Row buffer hit rate for reads
system.mem_ctrls1.writeRowHitRate               28.28                       # Row buffer hit rate for writes
system.mem_ctrls1.avgGap                   9484123.94                       # Average gap between requests
system.mem_ctrls1.pageHitRate                   52.91                       # Row buffer hit rate, read and write combined
system.mem_ctrls1_0.actEnergy               178749900                       # Energy for activate commands per rank (pJ)
system.mem_ctrls1_0.preEnergy                95007825                       # Energy for precharge commands per rank (pJ)
system.mem_ctrls1_0.readEnergy              249642960                       # Energy for read commands per rank (pJ)
system.mem_ctrls1_0.writeEnergy              94528980                       # Energy for write commands per rank (pJ)
system.mem_ctrls1_0.refreshEnergy        4593204720.000001                       # Energy for refresh commands per rank (pJ)
system.mem_ctrls1_0.actBackEnergy          2217265230                       # Energy for active background per rank (pJ)
system.mem_ctrls1_0.preBackEnergy           125556960                       # Energy for precharge background per rank (pJ)
system.mem_ctrls1_0.actPowerDownEnergy    18069860130                       # Energy for active power-down per rank (pJ)
system.mem_ctrls1_0.prePowerDownEnergy     4320144000                       # Energy for precharge power-down per rank (pJ)
system.mem_ctrls1_0.selfRefreshEnergy    228252948225                       # Energy for self refresh per rank (pJ)
system.mem_ctrls1_0.totalEnergy          258197028210                       # Total energy per rank (pJ)
system.mem_ctrls1_0.averagePower           256.543275                       # Core power per rank (mW)
system.mem_ctrls1_0.totalIdleTime        1001251812705                       # Total Idle time Per DRAM Rank
system.mem_ctrls1_0.memoryStateTime::IDLE    124267610                       # Time in different power states
system.mem_ctrls1_0.memoryStateTime::REF   1944768000                       # Time in different power states
system.mem_ctrls1_0.memoryStateTime::SREF 950379374212                       # Time in different power states
system.mem_ctrls1_0.memoryStateTime::PRE_PDN  11249823420                       # Time in different power states
system.mem_ctrls1_0.memoryStateTime::ACT   3121122647                       # Time in different power states
system.mem_ctrls1_0.memoryStateTime::ACT_PDN  39626936365                       # Time in different power states
system.mem_ctrls1_1.actEnergy               177750300                       # Energy for activate commands per rank (pJ)
system.mem_ctrls1_1.preEnergy                94476525                       # Energy for precharge commands per rank (pJ)
system.mem_ctrls1_1.readEnergy              249521580                       # Energy for read commands per rank (pJ)
system.mem_ctrls1_1.writeEnergy              94080060                       # Energy for write commands per rank (pJ)
system.mem_ctrls1_1.refreshEnergy        4489330560.000001                       # Energy for refresh commands per rank (pJ)
system.mem_ctrls1_1.actBackEnergy          2238877920                       # Energy for active background per rank (pJ)
system.mem_ctrls1_1.preBackEnergy           119140320                       # Energy for precharge background per rank (pJ)
system.mem_ctrls1_1.actPowerDownEnergy    17825047410                       # Energy for active power-down per rank (pJ)
system.mem_ctrls1_1.prePowerDownEnergy     4169858400                       # Energy for precharge power-down per rank (pJ)
system.mem_ctrls1_1.selfRefreshEnergy    228436418520                       # Energy for self refresh per rank (pJ)
system.mem_ctrls1_1.totalEnergy          257894776935                       # Total energy per rank (pJ)
system.mem_ctrls1_1.averagePower           256.242960                       # Core power per rank (mW)
system.mem_ctrls1_1.totalIdleTime        1001224211187                       # Total Idle time Per DRAM Rank
system.mem_ctrls1_1.memoryStateTime::IDLE    111649902                       # Time in different power states
system.mem_ctrls1_1.memoryStateTime::REF   1900546000                       # Time in different power states
system.mem_ctrls1_1.memoryStateTime::SREF 951276588397                       # Time in different power states
system.mem_ctrls1_1.memoryStateTime::PRE_PDN  10858760733                       # Time in different power states
system.mem_ctrls1_1.memoryStateTime::ACT   3207416308                       # Time in different power states
system.mem_ctrls1_1.memoryStateTime::ACT_PDN  39091330914                       # Time in different power states
system.pwrStateResidencyTicks::UNDEFINED 111332665046511                       # Cumulative time (in ticks) in various power states
system.cpu.branchPred.lookups                      16                       # Number of BP lookups
system.cpu.branchPred.condPredicted                16                       # Number of conditional branches predicted
system.cpu.branchPred.condIncorrect                13                       # Number of conditional branches incorrect
system.cpu.branchPred.BTBLookups                    0                       # Number of BTB lookups
system.cpu.branchPred.BTBHits                       0                       # Number of BTB hits
system.cpu.branchPred.BTBCorrect                    0                       # Number of correct BTB predictions (this stat may not work properly.
system.cpu.branchPred.BTBHitPct                   nan                       # BTB Hit Percentage
system.cpu.branchPred.usedRAS                       0                       # Number of times the RAS was used to get a target.
system.cpu.branchPred.RASInCorrect                  0                       # Number of incorrect RAS predictions.
system.cpu.branchPred.indirectLookups               0                       # Number of indirect predictor lookups.
system.cpu.branchPred.indirectHits                  0                       # Number of indirect target hits.
system.cpu.branchPred.indirectMisses                0                       # Number of indirect misses.
system.cpu.branchPredindirectMispredicted            0                       # Number of mispredicted indirect branches.
system.cpu_voltage_domain.voltage                   1                       # Voltage in Volts
system.cpu_clk_domain.clock                       333                       # Clock period in ticks
system.cpu.dtb.fetch_hits                           0                       # ITB hits
system.cpu.dtb.fetch_misses                         0                       # ITB misses
system.cpu.dtb.fetch_acv                            0                       # ITB acv
system.cpu.dtb.fetch_accesses                       0                       # ITB accesses
system.cpu.dtb.read_hits                           28                       # DTB read hits
system.cpu.dtb.read_misses                          0                       # DTB read misses
system.cpu.dtb.read_acv                             0                       # DTB read access violations
system.cpu.dtb.read_accesses                       28                       # DTB read accesses
system.cpu.dtb.write_hits                          14                       # DTB write hits
system.cpu.dtb.write_misses                         0                       # DTB write misses
system.cpu.dtb.write_acv                            0                       # DTB write access violations
system.cpu.dtb.write_accesses                      14                       # DTB write accesses
system.cpu.dtb.data_hits                           42                       # DTB hits
system.cpu.dtb.data_misses                          0                       # DTB misses
system.cpu.dtb.data_acv                             0                       # DTB access violations
system.cpu.dtb.data_accesses                       42                       # DTB accesses
system.cpu.itb.fetch_hits                          30                       # ITB hits
system.cpu.itb.fetch_misses                         0                       # ITB misses
system.cpu.itb.fetch_acv                            0                       # ITB acv
system.cpu.itb.fetch_accesses                      30                       # ITB accesses
system.cpu.itb.read_hits                            0                       # DTB read hits
system.cpu.itb.read_misses                          0                       # DTB read misses
system.cpu.itb.read_acv                             0                       # DTB read access violations
system.cpu.itb.read_accesses                        0                       # DTB read accesses
system.cpu.itb.write_hits                           0                       # DTB write hits
system.cpu.itb.write_misses                         0                       # DTB write misses
system.cpu.itb.write_acv                            0                       # DTB write access violations
system.cpu.itb.write_accesses                       0                       # DTB write accesses
system.cpu.itb.data_hits                            0                       # DTB hits
system.cpu.itb.data_misses                          0                       # DTB misses
system.cpu.itb.data_acv                             0                       # DTB access violations
system.cpu.itb.data_accesses                        0                       # DTB accesses
system.cpu.workload.num_syscalls                    6                       # Number of system calls
system.cpu.pwrStateResidencyTicks::ON    1006446292254                       # Cumulative time (in ticks) in various power states
system.cpu.numCycles                              594                       # number of cpu cycles simulated
system.cpu.numWorkItemsStarted                      0                       # number of work items this cpu started
system.cpu.numWorkItemsCompleted                    0                       # number of work items this cpu completed
system.cpu.fetch.icacheStallCycles                160                       # Number of cycles fetch is stalled on an Icache miss
system.cpu.fetch.Insts                            176                       # Number of instructions fetch has processed
system.cpu.fetch.Branches                          16                       # Number of branches that fetch encountered
system.cpu.fetch.Cycles                            29                       # Number of cycles fetch has run and was not squashing or blocked
system.cpu.fetch.SquashCycles                      29                       # Number of cycles fetch has spent squashing
system.cpu.fetch.PendingDrainCycles                23                       # Number of cycles fetch has spent waiting on pipes to drain
system.cpu.fetch.CacheLines                        30                       # Number of cache lines fetched
system.cpu.fetch.IcacheSquashes                    15                       # Number of outstanding Icache misses that were squashed
system.cpu.fetch.rateDist::samples                226                       # Number of instructions fetched each cycle (Total)
system.cpu.fetch.rateDist::mean              0.778761                       # Number of instructions fetched each cycle (Total)
system.cpu.fetch.rateDist::stdev             2.157095                       # Number of instructions fetched each cycle (Total)
system.cpu.fetch.rateDist::underflows               0      0.00%      0.00% # Number of instructions fetched each cycle (Total)
system.cpu.fetch.rateDist::0                      197     87.17%     87.17% # Number of instructions fetched each cycle (Total)
system.cpu.fetch.rateDist::1                        0      0.00%     87.17% # Number of instructions fetched each cycle (Total)
system.cpu.fetch.rateDist::2                        0      0.00%     87.17% # Number of instructions fetched each cycle (Total)
system.cpu.fetch.rateDist::3                        0      0.00%     87.17% # Number of instructions fetched each cycle (Total)
system.cpu.fetch.rateDist::4                       14      6.19%     93.36% # Number of instructions fetched each cycle (Total)
system.cpu.fetch.rateDist::5                        0      0.00%     93.36% # Number of instructions fetched each cycle (Total)
[...]
system.switch_cpus_1.iq.int_inst_queue_writes    202635888                       # Number of integer instruction queue writes
system.switch_cpus_1.iq.int_inst_queue_wakeup_accesses    200867061                       # Number of integer instruction queue wakeup accesses
system.switch_cpus_1.iq.fp_inst_queue_reads        22088                       # Number of floating instruction queue reads
system.switch_cpus_1.iq.fp_inst_queue_writes        22203                       # Number of floating instruction queue writes
system.switch_cpus_1.iq.fp_inst_queue_wakeup_accesses         9765                       # Number of floating instruction queue wakeup accesses
system.switch_cpus_1.iq.int_alu_accesses    204609899                       # Number of integer alu accesses
system.switch_cpus_1.iq.fp_alu_accesses         11180                       # Number of floating point alu accesses
system.switch_cpus_1.iew.lsq.thread0.forwLoads      2209639                       # Number of loads that had data forwarded from stores
system.switch_cpus_1.iew.lsq.thread0.invAddrLoads            0                       # Number of loads ignored due to an invalid address
system.switch_cpus_1.iew.lsq.thread0.squashedLoads       350254                       # Number of loads squashed
system.switch_cpus_1.iew.lsq.thread0.ignoredResponses          211                       # Number of memory responses ignored because the instruction is squashed
system.switch_cpus_1.iew.lsq.thread0.memOrderViolation         3471                       # Number of memory ordering violations
system.switch_cpus_1.iew.lsq.thread0.squashedStores       139497                       # Number of stores squashed
system.switch_cpus_1.iew.lsq.thread0.invAddrSwpfs            0                       # Number of software prefetches ignored due to an invalid address
system.switch_cpus_1.iew.lsq.thread0.blockedLoads            0                       # Number of blocked loads due to partial load-store forwarding
system.switch_cpus_1.iew.lsq.thread0.rescheduledLoads           41                       # Number of loads that were rescheduled
system.switch_cpus_1.iew.lsq.thread0.cacheBlocked       427325                       # Number of times an access to memory failed due to the cache being blocked
system.switch_cpus_1.iew.iewIdleCycles              0                       # Number of cycles IEW is idle
system.switch_cpus_1.iew.iewSquashCycles        36144                       # Number of cycles IEW is squashing
system.switch_cpus_1.iew.iewBlockCycles        281404                       # Number of cycles IEW is blocking
system.switch_cpus_1.iew.iewUnblockCycles      1915379                       # Number of cycles IEW is unblocking
system.switch_cpus_1.iew.iewDispatchedInsts    201461187                       # Number of instructions dispatched to IQ
system.switch_cpus_1.iew.iewDispSquashedInsts         1102                       # Number of squashed instructions skipped by dispatch
system.switch_cpus_1.iew.iewDispLoadInsts     53740054                       # Number of dispatched load instructions
system.switch_cpus_1.iew.iewDispStoreInsts     22318090                       # Number of dispatched store instructions
system.switch_cpus_1.iew.iewDispNonSpecInsts         1865                       # Number of dispatched non-speculative instructions
system.switch_cpus_1.iew.iewIQFullEvents        12428                       # Number of times the IQ has become full, causing a stall
system.switch_cpus_1.iew.iewLSQFullEvents      1885531                       # Number of times the LSQ has become full, causing a stall
system.switch_cpus_1.iew.memOrderViolationEvents         3471                       # Number of memory order violations
system.switch_cpus_1.iew.predictedTakenIncorrect        11648                       # Number of branches that were predicted taken incorrectly
system.switch_cpus_1.iew.predictedNotTakenIncorrect        16763                       # Number of branches that were predicted not taken incorrectly
system.switch_cpus_1.iew.branchMispredicts        28411                       # Number of branch mispredicts detected at execute
system.switch_cpus_1.iew.iewExecutedInsts    201359411                       # Number of executed instructions
system.switch_cpus_1.iew.iewExecLoadInsts     54079307                       # Number of load instructions executed
system.switch_cpus_1.iew.iewExecSquashedInsts        67070                       # Number of squashed instructions skipped in execute
system.switch_cpus_1.iew.exec_swp                   0                       # number of swp insts executed
system.switch_cpus_1.iew.exec_nop              133823                       # number of nop insts executed
system.switch_cpus_1.iew.exec_refs           76340862                       # number of memory reference insts executed
system.switch_cpus_1.iew.exec_branches        9159549                       # Number of branches executed
system.switch_cpus_1.iew.exec_stores         22261555                       # Number of stores executed
system.switch_cpus_1.iew.exec_rate           3.168547                       # Inst execution rate
system.switch_cpus_1.iew.wb_sent            200929167                       # cumulative count of insts sent to commit
system.switch_cpus_1.iew.wb_count           200876826                       # cumulative count of insts written-back
system.switch_cpus_1.iew.wb_producers       130030756                       # num instructions producing a value
system.switch_cpus_1.iew.wb_consumers       178523694                       # num instructions consuming a value
system.switch_cpus_1.iew.wb_rate             3.160953                       # insts written-back per cycle
system.switch_cpus_1.iew.wb_fanout           0.728367                       # average fanout of values written-back
system.switch_cpus_1.commit.commitSquashedInsts      1266632                       # The number of squashed insts skipped by commit
system.switch_cpus_1.commit.commitNonSpecStalls         2565                       # The number of times commit has been forced to stall to communicate backwards
system.switch_cpus_1.commit.branchMispredicts        27136                       # The number of times a branch was mispredicted
system.switch_cpus_1.commit.committed_per_cycle::samples     63336704                       # Number of insts commited each cycle
system.switch_cpus_1.commit.committed_per_cycle::mean     3.159363                       # Number of insts commited each cycle
system.switch_cpus_1.commit.committed_per_cycle::stdev     3.494510                       # Number of insts commited each cycle
system.switch_cpus_1.commit.committed_per_cycle::underflows            0      0.00%      0.00% # Number of insts commited each cycle
system.switch_cpus_1.commit.committed_per_cycle::0     23520095     37.14%     37.14% # Number of insts commited each cycle
system.switch_cpus_1.commit.committed_per_cycle::1     11484099     18.13%     55.27% # Number of insts commited each cycle
system.switch_cpus_1.commit.committed_per_cycle::2      2516721      3.97%     59.24% # Number of insts commited each cycle
system.switch_cpus_1.commit.committed_per_cycle::3      2935150      4.63%     63.87% # Number of insts commited each cycle
system.switch_cpus_1.commit.committed_per_cycle::4       421954      0.67%     64.54% # Number of insts commited each cycle
system.switch_cpus_1.commit.committed_per_cycle::5      1969925      3.11%     67.65% # Number of insts commited each cycle
system.switch_cpus_1.commit.committed_per_cycle::6       199231      0.31%     67.97% # Number of insts commited each cycle
system.switch_cpus_1.commit.committed_per_cycle::7       268440      0.42%     68.39% # Number of insts commited each cycle
system.switch_cpus_1.commit.committed_per_cycle::8     20021089     31.61%    100.00% # Number of insts commited each cycle
system.switch_cpus_1.commit.committed_per_cycle::overflows            0      0.00%    100.00% # Number of insts commited each cycle
system.switch_cpus_1.commit.committed_per_cycle::min_value            0                       # Number of insts commited each cycle
system.switch_cpus_1.commit.committed_per_cycle::max_value            8                       # Number of insts commited each cycle
system.switch_cpus_1.commit.committed_per_cycle::total     63336704                       # Number of insts commited each cycle
system.switch_cpus_1.commit.committedInsts    200103610                       # Number of instructions committed
system.switch_cpus_1.commit.committedOps    200103610                       # Number of ops (including micro ops) committed
system.switch_cpus_1.commit.swp_count               0                       # Number of s/w prefetches committed
system.switch_cpus_1.commit.refs             75568371                       # Number of memory references committed
system.switch_cpus_1.commit.loads            53389787                       # Number of loads committed
system.switch_cpus_1.commit.membars              1282                       # Number of memory barriers committed
system.switch_cpus_1.commit.branches          9081009                       # Number of branches committed
system.switch_cpus_1.commit.fp_insts             7063                       # Number of committed floating point instructions.
system.switch_cpus_1.commit.int_insts       199966042                       # Number of committed integer instructions.
system.switch_cpus_1.commit.function_calls        26169                       # Number of function calls committed.
system.switch_cpus_1.commit.op_class_0::No_OpClass       103604      0.05%      0.05% # Class of committed instruction
system.switch_cpus_1.commit.op_class_0::IntAlu    124425131     62.18%     62.23% # Class of committed instruction
system.switch_cpus_1.commit.op_class_0::IntMult           14      0.00%     62.23% # Class of committed instruction
system.switch_cpus_1.commit.op_class_0::IntDiv            0      0.00%     62.23% # Class of committed instruction
system.switch_cpus_1.commit.op_class_0::FloatAdd         3080      0.00%     62.23% # Class of committed instruction
system.switch_cpus_1.commit.op_class_0::FloatCmp          511      0.00%     62.23% # Class of committed instruction
system.switch_cpus_1.commit.op_class_0::FloatCvt          406      0.00%     62.23% # Class of committed instruction
system.switch_cpus_1.commit.op_class_0::FloatMult         1162      0.00%     62.23% # Class of committed instruction
system.switch_cpus_1.commit.op_class_0::FloatMultAcc            0      0.00%     62.23% # Class of committed instruction
system.switch_cpus_1.commit.op_class_0::FloatDiv           49      0.00%     62.23% # Class of committed instruction
system.switch_cpus_1.commit.op_class_0::FloatMisc            0      0.00%     62.23% # Class of committed instruction
system.switch_cpus_1.commit.op_class_0::FloatSqrt            0      0.00%     62.23% # Class of committed instruction
system.switch_cpus_1.commit.op_class_0::SimdAdd            0      0.00%     62.23% # Class of committed instruction
system.switch_cpus_1.commit.op_class_0::SimdAddAcc            0      0.00%     62.23% # Class of committed instruction
system.switch_cpus_1.commit.op_class_0::SimdAlu            0      0.00%     62.23% # Class of committed instruction
system.switch_cpus_1.commit.op_class_0::SimdCmp            0      0.00%     62.23% # Class of committed instruction
system.switch_cpus_1.commit.op_class_0::SimdCvt            0      0.00%     62.23% # Class of committed instruction
system.switch_cpus_1.commit.op_class_0::SimdMisc            0      0.00%     62.23% # Class of committed instruction
system.switch_cpus_1.commit.op_class_0::SimdMult            0      0.00%     62.23% # Class of committed instruction
system.switch_cpus_1.commit.op_class_0::SimdMultAcc            0      0.00%     62.23% # Class of committed instruction
system.switch_cpus_1.commit.op_class_0::SimdShift            0      0.00%     62.23% # Class of committed instruction
system.switch_cpus_1.commit.op_class_0::SimdShiftAcc            0      0.00%     62.23% # Class of committed instruction
system.switch_cpus_1.commit.op_class_0::SimdSqrt            0      0.00%     62.23% # Class of committed instruction
system.switch_cpus_1.commit.op_class_0::SimdFloatAdd            0      0.00%     62.23% # Class of committed instruction
system.switch_cpus_1.commit.op_class_0::SimdFloatAlu            0      0.00%     62.23% # Class of committed instruction
system.switch_cpus_1.commit.op_class_0::SimdFloatCmp            0      0.00%     62.23% # Class of committed instruction
system.switch_cpus_1.commit.op_class_0::SimdFloatCvt            0      0.00%     62.23% # Class of committed instruction
system.switch_cpus_1.commit.op_class_0::SimdFloatDiv            0      0.00%     62.23% # Class of committed instruction
system.switch_cpus_1.commit.op_class_0::SimdFloatMisc            0      0.00%     62.23% # Class of committed instruction
system.switch_cpus_1.commit.op_class_0::SimdFloatMult            0      0.00%     62.23% # Class of committed instruction
system.switch_cpus_1.commit.op_class_0::SimdFloatMultAcc            0      0.00%     62.23% # Class of committed instruction
system.switch_cpus_1.commit.op_class_0::SimdFloatSqrt            0      0.00%     62.23% # Class of committed instruction
system.switch_cpus_1.commit.op_class_0::MemRead     53389445     26.68%     88.92% # Class of committed instruction
system.switch_cpus_1.commit.op_class_0::MemWrite     22178353     11.08%    100.00% # Class of committed instruction
system.switch_cpus_1.commit.op_class_0::FloatMemRead         1624      0.00%    100.00% # Class of committed instruction
system.switch_cpus_1.commit.op_class_0::FloatMemWrite          231      0.00%    100.00% # Class of committed instruction
system.switch_cpus_1.commit.op_class_0::IprAccess            0      0.00%    100.00% # Class of committed instruction
system.switch_cpus_1.commit.op_class_0::InstPrefetch            0      0.00%    100.00% # Class of committed instruction
system.switch_cpus_1.commit.op_class_0::total    200103610                       # Class of committed instruction
system.switch_cpus_1.commit.bw_lim_events     20021089                       # number cycles where commit BW limit reached
system.switch_cpus_1.rob.rob_reads          244606726                       # The number of ROB reads
system.switch_cpus_1.rob.rob_writes         402926787                       # The number of ROB writes
system.switch_cpus_1.timesIdled                   803                       # Number of times that the entire CPU went into an idle state and unscheduled itself
system.switch_cpus_1.idleCycles                 28969                       # Total number of cycles that the CPU has spent unscheduled due to idling
system.switch_cpus_1.committedInsts         200000006                       # Number of Instructions Simulated
system.switch_cpus_1.committedOps           200000006                       # Number of Ops (including micro ops) Simulated
system.switch_cpus_1.cpi                     0.317747                       # CPI: Cycles Per Instruction
system.switch_cpus_1.cpi_total               0.317747                       # CPI: Total CPI of All Threads
system.switch_cpus_1.ipc                     3.147156                       # IPC: Instructions Per Cycle
system.switch_cpus_1.ipc_total               3.147156                       # IPC: Total IPC of All Threads
system.switch_cpus_1.int_regfile_reads      323291107                       # number of integer regfile reads
system.switch_cpus_1.int_regfile_writes     169527210                       # number of integer regfile writes
system.switch_cpus_1.fp_regfile_reads           12729                       # number of floating regfile reads
system.switch_cpus_1.fp_regfile_writes           8344                       # number of floating regfile writes
system.switch_cpus_1.misc_regfile_reads         13800                       # number of misc regfile reads
system.switch_cpus_1.misc_regfile_writes         2564                       # number of misc regfile writes
system.tol3bus.snoop_filter.tot_requests      5443155                       # Total number of requests made to the snoop filter.
system.tol3bus.snoop_filter.hit_single_requests      2719256                       # Number of requests hitting in the snoop filter with a single holder of the requested data.
system.tol3bus.snoop_filter.hit_multi_requests            0                       # Number of requests hitting in the snoop filter with multiple (>1) holders of the requested data.
system.tol3bus.snoop_filter.tot_snoops            986                       # Total number of snoops made to the snoop filter.
system.tol3bus.snoop_filter.hit_single_snoops          986                       # Number of snoops hitting in the snoop filter with a single holder of the requested data.
system.tol3bus.snoop_filter.hit_multi_snoops            0                       # Number of snoops hitting in the snoop filter with multiple (>1) holders of the requested data.
system.tol3bus.pwrStateResidencyTicks::UNDEFINED 111332665046511                       # Cumulative time (in ticks) in various power states
system.tol3bus.trans_dist::ReadResp            206223                       # Transaction distribution
system.tol3bus.trans_dist::WritebackDirty      2624675                       # Transaction distribution
system.tol3bus.trans_dist::CleanEvict          169064                       # Transaction distribution
system.tol3bus.trans_dist::ReadExReq          2517676                       # Transaction distribution
system.tol3bus.trans_dist::ReadExResp         2517676                       # Transaction distribution
system.tol3bus.trans_dist::ReadSharedReq       206223                       # Transaction distribution
system.tol3bus.pkt_count_system.cpu.l2.mem_side::system.l3.cpu_side      8167054                       # Packet count per connected master and slave (bytes)
system.tol3bus.pkt_size_system.cpu.l2.mem_side::system.l3.cpu_side    337671488                       # Cumulative packet size per connected master and slave (bytes)
system.tol3bus.snoops                           74483                       # Total snoops (count)
system.tol3bus.snoopTraffic                   4637248                       # Total snoop traffic (bytes)
system.tol3bus.snoop_fanout::samples          2798382                       # Request fanout histogram
system.tol3bus.snoop_fanout::mean            0.000352                       # Request fanout histogram
system.tol3bus.snoop_fanout::stdev           0.018768                       # Request fanout histogram
system.tol3bus.snoop_fanout::underflows             0      0.00%      0.00% # Request fanout histogram
system.tol3bus.snoop_fanout::0                2797396     99.96%     99.96% # Request fanout histogram
system.tol3bus.snoop_fanout::1                    986      0.04%    100.00% # Request fanout histogram
system.tol3bus.snoop_fanout::overflows              0      0.00%    100.00% # Request fanout histogram
system.tol3bus.snoop_fanout::min_value              0                       # Request fanout histogram
system.tol3bus.snoop_fanout::max_value              1                       # Request fanout histogram
system.tol3bus.snoop_fanout::total            2798382                       # Request fanout histogram
system.tol3bus.reqLayer0.occupancy         2662459209                       # Layer occupancy (ticks)
system.tol3bus.reqLayer0.utilization              0.3                       # Layer utilization (%)
system.tol3bus.respLayer0.occupancy        1814116734                       # Layer occupancy (ticks)
system.tol3bus.respLayer0.utilization             0.2                       # Layer utilization (%)

---------- End Simulation Statistics   ----------
