
---------- Begin Simulation Statistics ----------
sim_seconds                                  3.687213                       # Number of seconds simulated
sim_ticks                                3687213247515                       # Number of ticks simulated
final_tick                               73717185828861                       # Number of ticks from beginning of simulation (restored from checkpoints and never reset)
sim_freq                                 1000000000000                       # Frequency of simulated ticks
host_inst_rate                                 215476                       # Simulator instruction rate (inst/s)
host_op_rate                                   215476                       # Simulator op (including micro ops) rate (op/s)
host_tick_rate                              662086939                       # Simulator tick rate (ticks/s)
host_mem_usage                                2504344                       # Number of bytes of host memory used
host_seconds                                  5569.08                       # Real time elapsed on the host
sim_insts                                  1200000014                       # Number of instructions simulated
sim_ops                                    1200000014                       # Number of ops (including micro ops) simulated
system.voltage_domain.voltage                       1                       # Voltage in Volts
system.clk_domain.clock                          1000                       # Clock period in ticks
system.mem_ctrls0.pwrStateResidencyTicks::UNDEFINED 73717185828861                       # Cumulative time (in ticks) in various power states
system.mem_ctrls0.bytes_read::cpu.inst             64                       # Number of bytes read from this memory
system.mem_ctrls0.bytes_read::cpu.data            128                       # Number of bytes read from this memory
system.mem_ctrls0.bytes_read::switch_cpus.inst       129984                       # Number of bytes read from this memory
system.mem_ctrls0.bytes_read::switch_cpus.data    385823744                       # Number of bytes read from this memory
system.mem_ctrls0.bytes_read::switch_cpus_1.inst        35904                       # Number of bytes read from this memory
system.mem_ctrls0.bytes_read::switch_cpus_1.data     80645504                       # Number of bytes read from this memory
system.mem_ctrls0.bytes_read::total         466635328                       # Number of bytes read from this memory
system.mem_ctrls0.bytes_inst_read::cpu.inst           64                       # Number of instructions bytes read from this memory
system.mem_ctrls0.bytes_inst_read::switch_cpus.inst       129984                       # Number of instructions bytes read from this memory
system.mem_ctrls0.bytes_inst_read::switch_cpus_1.inst        35904                       # Number of instructions bytes read from this memory
system.mem_ctrls0.bytes_inst_read::total       165952                       # Number of instructions bytes read from this memory
system.mem_ctrls0.bytes_written::writebacks    164950400                       # Number of bytes written to this memory
system.mem_ctrls0.bytes_written::total      164950400                       # Number of bytes written to this memory
system.mem_ctrls0.num_reads::cpu.inst               1                       # Number of read requests responded to by this memory
system.mem_ctrls0.num_reads::cpu.data               2                       # Number of read requests responded to by this memory
system.mem_ctrls0.num_reads::switch_cpus.inst         2031                       # Number of read requests responded to by this memory
system.mem_ctrls0.num_reads::switch_cpus.data      6028496                       # Number of read requests responded to by this memory
system.mem_ctrls0.num_reads::switch_cpus_1.inst          561                       # Number of read requests responded to by this memory
system.mem_ctrls0.num_reads::switch_cpus_1.data      1260086                       # Number of read requests responded to by this memory
system.mem_ctrls0.num_reads::total            7291177                       # Number of read requests responded to by this memory
system.mem_ctrls0.num_writes::writebacks      2577350                       # Number of write requests responded to by this memory
system.mem_ctrls0.num_writes::total           2577350                       # Number of write requests responded to by this memory
system.mem_ctrls0.bw_read::cpu.inst                17                       # Total read bandwidth from this memory (bytes/s)
system.mem_ctrls0.bw_read::cpu.data                35                       # Total read bandwidth from this memory (bytes/s)
system.mem_ctrls0.bw_read::switch_cpus.inst        35253                       # Total read bandwidth from this memory (bytes/s)
system.mem_ctrls0.bw_read::switch_cpus.data    104638305                       # Total read bandwidth from this memory (bytes/s)
system.mem_ctrls0.bw_read::switch_cpus_1.inst         9737                       # Total read bandwidth from this memory (bytes/s)
system.mem_ctrls0.bw_read::switch_cpus_1.data     21871668                       # Total read bandwidth from this memory (bytes/s)
system.mem_ctrls0.bw_read::total            126555015                       # Total read bandwidth from this memory (bytes/s)
system.mem_ctrls0.bw_inst_read::cpu.inst           17                       # Instruction read bandwidth from this memory (bytes/s)
system.mem_ctrls0.bw_inst_read::switch_cpus.inst        35253                       # Instruction read bandwidth from this memory (bytes/s)
system.mem_ctrls0.bw_inst_read::switch_cpus_1.inst         9737                       # Instruction read bandwidth from this memory (bytes/s)
system.mem_ctrls0.bw_inst_read::total           45007                       # Instruction read bandwidth from this memory (bytes/s)
system.mem_ctrls0.bw_write::writebacks       44735791                       # Write bandwidth from this memory (bytes/s)
system.mem_ctrls0.bw_write::total            44735791                       # Write bandwidth from this memory (bytes/s)
system.mem_ctrls0.bw_total::writebacks       44735791                       # Total bandwidth to/from this memory (bytes/s)
system.mem_ctrls0.bw_total::cpu.inst               17                       # Total bandwidth to/from this memory (bytes/s)
system.mem_ctrls0.bw_total::cpu.data               35                       # Total bandwidth to/from this memory (bytes/s)
system.mem_ctrls0.bw_total::switch_cpus.inst        35253                       # Total bandwidth to/from this memory (bytes/s)
system.mem_ctrls0.bw_total::switch_cpus.data    104638305                       # Total bandwidth to/from this memory (bytes/s)
system.mem_ctrls0.bw_total::switch_cpus_1.inst         9737                       # Total bandwidth to/from this memory (bytes/s)
system.mem_ctrls0.bw_total::switch_cpus_1.data     21871668                       # Total bandwidth to/from this memory (bytes/s)
system.mem_ctrls0.bw_total::total           171290806                       # Total bandwidth to/from this memory (bytes/s)
system.mem_ctrls0.readReqs                    7291177                       # Number of read requests accepted
system.mem_ctrls0.writeReqs                   2577350                       # Number of write requests accepted
system.mem_ctrls0.readBursts                  7291177                       # Number of DRAM read bursts, including those serviced by the write queue
system.mem_ctrls0.writeBursts                 2577350                       # Number of DRAM write bursts, including those merged in the write queue
system.mem_ctrls0.bytesReadDRAM             466247424                       # Total number of bytes read from DRAM
system.mem_ctrls0.bytesReadWrQ                 387904                       # Total number of bytes read from write queue
system.mem_ctrls0.bytesWritten              164949184                       # Total number of bytes written to DRAM
system.mem_ctrls0.bytesReadSys              466635328                       # Total read bytes from the system interface side
system.mem_ctrls0.bytesWrittenSys           164950400                       # Total written bytes from the system interface side
system.mem_ctrls0.servicedByWrQ                  6061                       # Number of DRAM read bursts serviced by the write queue
system.mem_ctrls0.mergedWrBursts                    0                       # Number of DRAM write bursts merged with an existing one
system.mem_ctrls0.neitherReadNorWriteReqs            0                       # Number of requests that are neither read nor write
system.mem_ctrls0.perBankRdBursts::0           478490                       # Per bank write bursts
system.mem_ctrls0.perBankRdBursts::1           462143                       # Per bank write bursts
system.mem_ctrls0.perBankRdBursts::2           455635                       # Per bank write bursts
system.mem_ctrls0.perBankRdBursts::3           457505                       # Per bank write bursts
system.mem_ctrls0.perBankRdBursts::4           458558                       # Per bank write bursts
system.mem_ctrls0.perBankRdBursts::5           467850                       # Per bank write bursts
system.mem_ctrls0.perBankRdBursts::6           445061                       # Per bank write bursts
system.mem_ctrls0.perBankRdBursts::7           457759                       # Per bank write bursts
system.mem_ctrls0.perBankRdBursts::8           463226                       # Per bank write bursts
system.mem_ctrls0.perBankRdBursts::9           454298                       # Per bank write bursts
system.mem_ctrls0.perBankRdBursts::10          444372                       # Per bank write bursts
system.mem_ctrls0.perBankRdBursts::11          452883                       # Per bank write bursts
system.mem_ctrls0.perBankRdBursts::12          444320                       # Per bank write bursts
system.mem_ctrls0.perBankRdBursts::13          439951                       # Per bank write bursts
system.mem_ctrls0.perBankRdBursts::14          445942                       # Per bank write bursts
system.mem_ctrls0.perBankRdBursts::15          457123                       # Per bank write bursts
system.mem_ctrls0.perBankWrBursts::0           170174                       # Per bank write bursts
system.mem_ctrls0.perBankWrBursts::1           159197                       # Per bank write bursts
system.mem_ctrls0.perBankWrBursts::2           164711                       # Per bank write bursts
system.mem_ctrls0.perBankWrBursts::3           162991                       # Per bank write bursts
system.mem_ctrls0.perBankWrBursts::4           162601                       # Per bank write bursts
system.mem_ctrls0.perBankWrBursts::5           162801                       # Per bank write bursts
system.mem_ctrls0.perBankWrBursts::6           156831                       # Per bank write bursts
system.mem_ctrls0.perBankWrBursts::7           158200                       # Per bank write bursts
system.mem_ctrls0.perBankWrBursts::8           157906                       # Per bank write bursts
system.mem_ctrls0.perBankWrBursts::9           155337                       # Per bank write bursts
system.mem_ctrls0.perBankWrBursts::10          155569                       # Per bank write bursts
system.mem_ctrls0.perBankWrBursts::11          155701                       # Per bank write bursts
system.mem_ctrls0.perBankWrBursts::12          154202                       # Per bank write bursts
system.mem_ctrls0.perBankWrBursts::13          161067                       # Per bank write bursts
system.mem_ctrls0.perBankWrBursts::14          168671                       # Per bank write bursts
system.mem_ctrls0.perBankWrBursts::15          171372                       # Per bank write bursts
system.mem_ctrls0.numRdRetry                        0                       # Number of times read queue was full causing retry
system.mem_ctrls0.numWrRetry                        0                       # Number of times write queue was full causing retry
system.mem_ctrls0.totGap                 3687212329767                       # Total gap between requests
system.mem_ctrls0.readPktSize::0                    0                       # Read request sizes (log2)
system.mem_ctrls0.readPktSize::1                    0                       # Read request sizes (log2)
system.mem_ctrls0.readPktSize::2                    0                       # Read request sizes (log2)
system.mem_ctrls0.readPktSize::3                    0                       # Read request sizes (log2)
system.mem_ctrls0.readPktSize::4                    0                       # Read request sizes (log2)
system.mem_ctrls0.readPktSize::5                    0                       # Read request sizes (log2)
system.mem_ctrls0.readPktSize::6              7291177                       # Read request sizes (log2)
system.mem_ctrls0.writePktSize::0                   0                       # Write request sizes (log2)
system.mem_ctrls0.writePktSize::1                   0                       # Write request sizes (log2)
system.mem_ctrls0.writePktSize::2                   0                       # Write request sizes (log2)
system.mem_ctrls0.writePktSize::3                   0                       # Write request sizes (log2)
system.mem_ctrls0.writePktSize::4                   0                       # Write request sizes (log2)
system.mem_ctrls0.writePktSize::5                   0                       # Write request sizes (log2)
system.mem_ctrls0.writePktSize::6             2577350                       # Write request sizes (log2)
system.mem_ctrls0.rdQLenPdf::0                6958159                       # What read queue length does an incoming req see
system.mem_ctrls0.rdQLenPdf::1                 283018                       # What read queue length does an incoming req see
system.mem_ctrls0.rdQLenPdf::2                  40705                       # What read queue length does an incoming req see
system.mem_ctrls0.rdQLenPdf::3                   3234                       # What read queue length does an incoming req see
system.mem_ctrls0.rdQLenPdf::4                      0                       # What read queue length does an incoming req see
system.mem_ctrls0.rdQLenPdf::5                      0                       # What read queue length does an incoming req see
system.mem_ctrls0.rdQLenPdf::6                      0                       # What read queue length does an incoming req see
system.mem_ctrls0.rdQLenPdf::7                      0                       # What read queue length does an incoming req see
system.mem_ctrls0.rdQLenPdf::8                      0                       # What read queue length does an incoming req see
system.mem_ctrls0.rdQLenPdf::9                      0                       # What read queue length does an incoming req see
system.mem_ctrls0.rdQLenPdf::10                     0                       # What read queue length does an incoming req see
system.mem_ctrls0.rdQLenPdf::11                     0                       # What read queue length does an incoming req see
system.mem_ctrls0.rdQLenPdf::12                     0                       # What read queue length does an incoming req see
system.mem_ctrls0.rdQLenPdf::13                     0                       # What read queue length does an incoming req see
system.mem_ctrls0.rdQLenPdf::14                     0                       # What read queue length does an incoming req see
system.mem_ctrls0.rdQLenPdf::15                     0                       # What read queue length does an incoming req see
system.mem_ctrls0.rdQLenPdf::16                     0                       # What read queue length does an incoming req see
system.mem_ctrls0.rdQLenPdf::17                     0                       # What read queue length does an incoming req see
system.mem_ctrls0.rdQLenPdf::18                     0                       # What read queue length does an incoming req see
system.mem_ctrls0.rdQLenPdf::19                     0                       # What read queue length does an incoming req see
system.mem_ctrls0.rdQLenPdf::20                     0                       # What read queue length does an incoming req see
system.mem_ctrls0.rdQLenPdf::21                     0                       # What read queue length does an incoming req see
system.mem_ctrls0.rdQLenPdf::22                     0                       # What read queue length does an incoming req see
system.mem_ctrls0.rdQLenPdf::23                     0                       # What read queue length does an incoming req see
system.mem_ctrls0.rdQLenPdf::24                     0                       # What read queue length does an incoming req see
system.mem_ctrls0.rdQLenPdf::25                     0                       # What read queue length does an incoming req see
system.mem_ctrls0.rdQLenPdf::26                     0                       # What read queue length does an incoming req see
system.mem_ctrls0.rdQLenPdf::27                     0                       # What read queue length does an incoming req see
system.mem_ctrls0.rdQLenPdf::28                     0                       # What read queue length does an incoming req see
system.mem_ctrls0.rdQLenPdf::29                     0                       # What read queue length does an incoming req see
system.mem_ctrls0.rdQLenPdf::30                     0                       # What read queue length does an incoming req see
system.mem_ctrls0.rdQLenPdf::31                     0                       # What read queue length does an incoming req see
system.mem_ctrls0.wrQLenPdf::0                      2                       # What write queue length does an incoming req see
system.mem_ctrls0.wrQLenPdf::1                      2                       # What write queue length does an incoming req see
system.mem_ctrls0.wrQLenPdf::2                      2                       # What write queue length does an incoming req see
system.mem_ctrls0.wrQLenPdf::3                      2                       # What write queue length does an incoming req see
system.mem_ctrls0.wrQLenPdf::4                      2                       # What write queue length does an incoming req see
system.mem_ctrls0.wrQLenPdf::5                      2                       # What write queue length does an incoming req see
system.mem_ctrls0.wrQLenPdf::6                      2                       # What write queue length does an incoming req see
system.mem_ctrls0.wrQLenPdf::7                      2                       # What write queue length does an incoming req see
system.mem_ctrls0.wrQLenPdf::8                      2                       # What write queue length does an incoming req see
system.mem_ctrls0.wrQLenPdf::9                      2                       # What write queue length does an incoming req see
system.mem_ctrls0.wrQLenPdf::10                     2                       # What write queue length does an incoming req see
system.mem_ctrls0.wrQLenPdf::11                     2                       # What write queue length does an incoming req see
system.mem_ctrls0.wrQLenPdf::12                     2                       # What write queue length does an incoming req see
system.mem_ctrls0.wrQLenPdf::13                     2                       # What write queue length does an incoming req see
system.mem_ctrls0.wrQLenPdf::14                     2                       # What write queue length does an incoming req see
system.mem_ctrls0.wrQLenPdf::15                117134                       # What write queue length does an incoming req see
system.mem_ctrls0.wrQLenPdf::16                121403                       # What write queue length does an incoming req see
system.mem_ctrls0.wrQLenPdf::17                143752                       # What write queue length does an incoming req see
system.mem_ctrls0.wrQLenPdf::18                145871                       # What write queue length does an incoming req see
system.mem_ctrls0.wrQLenPdf::19                146194                       # What write queue length does an incoming req see
system.mem_ctrls0.wrQLenPdf::20                146248                       # What write queue length does an incoming req see
system.mem_ctrls0.wrQLenPdf::21                146382                       # What write queue length does an incoming req see
system.mem_ctrls0.wrQLenPdf::22                146992                       # What write queue length does an incoming req see
system.mem_ctrls0.wrQLenPdf::23                147625                       # What write queue length does an incoming req see
system.mem_ctrls0.wrQLenPdf::24                146676                       # What write queue length does an incoming req see
system.mem_ctrls0.wrQLenPdf::25                146291                       # What write queue length does an incoming req see
system.mem_ctrls0.wrQLenPdf::26                146152                       # What write queue length does an incoming req see
system.mem_ctrls0.wrQLenPdf::27                146103                       # What write queue length does an incoming req see
system.mem_ctrls0.wrQLenPdf::28                146126                       # What write queue length does an incoming req see
system.mem_ctrls0.wrQLenPdf::29                146200                       # What write queue length does an incoming req see
system.mem_ctrls0.wrQLenPdf::30                146661                       # What write queue length does an incoming req see
system.mem_ctrls0.wrQLenPdf::31                145706                       # What write queue length does an incoming req see
system.mem_ctrls0.wrQLenPdf::32                145639                       # What write queue length does an incoming req see
system.mem_ctrls0.wrQLenPdf::33                   128                       # What write queue length does an incoming req see
system.mem_ctrls0.wrQLenPdf::34                    33                       # What write queue length does an incoming req see
system.mem_ctrls0.wrQLenPdf::35                     3                       # What write queue length does an incoming req see
system.mem_ctrls0.wrQLenPdf::36                     1                       # What write queue length does an incoming req see
system.mem_ctrls0.wrQLenPdf::37                     0                       # What write queue length does an incoming req see
system.mem_ctrls0.wrQLenPdf::38                     0                       # What write queue length does an incoming req see
system.mem_ctrls0.wrQLenPdf::39                     0                       # What write queue length does an incoming req see
system.mem_ctrls0.wrQLenPdf::40                     0                       # What write queue length does an incoming req see
system.mem_ctrls0.wrQLenPdf::41                     0                       # What write queue length does an incoming req see
system.mem_ctrls0.wrQLenPdf::42                     0                       # What write queue length does an incoming req see
system.mem_ctrls0.wrQLenPdf::43                     0                       # What write queue length does an incoming req see
system.mem_ctrls0.wrQLenPdf::44                     0                       # What write queue length does an incoming req see
system.mem_ctrls0.wrQLenPdf::45                     0                       # What write queue length does an incoming req see
system.mem_ctrls0.wrQLenPdf::46                     0                       # What write queue length does an incoming req see
system.mem_ctrls0.wrQLenPdf::47                     0                       # What write queue length does an incoming req see
system.mem_ctrls0.wrQLenPdf::48                     0                       # What write queue length does an incoming req see
system.mem_ctrls0.wrQLenPdf::49                     0                       # What write queue length does an incoming req see
system.mem_ctrls0.wrQLenPdf::50                     0                       # What write queue length does an incoming req see
system.mem_ctrls0.wrQLenPdf::51                     0                       # What write queue length does an incoming req see
system.mem_ctrls0.wrQLenPdf::52                     0                       # What write queue length does an incoming req see
system.mem_ctrls0.wrQLenPdf::53                     0                       # What write queue length does an incoming req see
system.mem_ctrls0.wrQLenPdf::54                     0                       # What write queue length does an incoming req see
system.mem_ctrls0.wrQLenPdf::55                     0                       # What write queue length does an incoming req see
system.mem_ctrls0.wrQLenPdf::56                     0                       # What write queue length does an incoming req see
system.mem_ctrls0.wrQLenPdf::57                     0                       # What write queue length does an incoming req see
system.mem_ctrls0.wrQLenPdf::58                     0                       # What write queue length does an incoming req see
system.mem_ctrls0.wrQLenPdf::59                     0                       # What write queue length does an incoming req see
system.mem_ctrls0.wrQLenPdf::60                     0                       # What write queue length does an incoming req see
system.mem_ctrls0.wrQLenPdf::61                     0                       # What write queue length does an incoming req see
system.mem_ctrls0.wrQLenPdf::62                     0                       # What write queue length does an incoming req see
system.mem_ctrls0.wrQLenPdf::63                     0                       # What write queue length does an incoming req see
system.mem_ctrls0.bytesPerActivate::samples      4686542                       # Bytes accessed per row activation
system.mem_ctrls0.bytesPerActivate::mean   134.682706                       # Bytes accessed per row activation
system.mem_ctrls0.bytesPerActivate::gmean    96.667986                       # Bytes accessed per row activation
system.mem_ctrls0.bytesPerActivate::stdev   163.345279                       # Bytes accessed per row activation
system.mem_ctrls0.bytesPerActivate::0-127      3095375     66.05%     66.05% # Bytes accessed per row activation
system.mem_ctrls0.bytesPerActivate::128-255       998983     21.32%     87.36% # Bytes accessed per row activation
system.mem_ctrls0.bytesPerActivate::256-383       246002      5.25%     92.61% # Bytes accessed per row activation
system.mem_ctrls0.bytesPerActivate::384-511       108689      2.32%     94.93% # Bytes accessed per row activation
system.mem_ctrls0.bytesPerActivate::512-639        77913      1.66%     96.59% # Bytes accessed per row activation
system.mem_ctrls0.bytesPerActivate::640-767        53948      1.15%     97.75% # Bytes accessed per row activation
system.mem_ctrls0.bytesPerActivate::768-895        35861      0.77%     98.51% # Bytes accessed per row activation
system.mem_ctrls0.bytesPerActivate::896-1023        24383      0.52%     99.03% # Bytes accessed per row activation
system.mem_ctrls0.bytesPerActivate::1024-1151        45388      0.97%    100.00% # Bytes accessed per row activation
system.mem_ctrls0.bytesPerActivate::total      4686542                       # Bytes accessed per row activation
system.mem_ctrls0.rdPerTurnAround::samples       145597                       # Reads before turning the bus around for writes
system.mem_ctrls0.rdPerTurnAround::mean     50.035997                       # Reads before turning the bus around for writes
system.mem_ctrls0.rdPerTurnAround::stdev   110.712870                       # Reads before turning the bus around for writes
system.mem_ctrls0.rdPerTurnAround::0-1023       145424     99.88%     99.88% # Reads before turning the bus around for writes
system.mem_ctrls0.rdPerTurnAround::1024-2047          141      0.10%     99.98% # Reads before turning the bus around for writes
system.mem_ctrls0.rdPerTurnAround::2048-3071           28      0.02%    100.00% # Reads before turning the bus around for writes
system.mem_ctrls0.rdPerTurnAround::3072-4095            3      0.00%    100.00% # Reads before turning the bus around for writes
system.mem_ctrls0.rdPerTurnAround::29696-30719            1      0.00%    100.00% # Reads before turning the bus around for writes
system.mem_ctrls0.rdPerTurnAround::total       145597                       # Reads before turning the bus around for writes
system.mem_ctrls0.wrPerTurnAround::samples       145597                       # Writes before turning the bus around for reads
system.mem_ctrls0.wrPerTurnAround::mean     17.701814                       # Writes before turning the bus around for reads
system.mem_ctrls0.wrPerTurnAround::gmean    17.681737                       # Writes before turning the bus around for reads
system.mem_ctrls0.wrPerTurnAround::stdev     0.827739                       # Writes before turning the bus around for reads
system.mem_ctrls0.wrPerTurnAround::16           24491     16.82%     16.82% # Writes before turning the bus around for reads
system.mem_ctrls0.wrPerTurnAround::17            3427      2.35%     19.17% # Writes before turning the bus around for reads
system.mem_ctrls0.wrPerTurnAround::18          109658     75.32%     94.49% # Writes before turning the bus around for reads
system.mem_ctrls0.wrPerTurnAround::19            7194      4.94%     99.43% # Writes before turning the bus around for reads
system.mem_ctrls0.wrPerTurnAround::20             709      0.49%     99.92% # Writes before turning the bus around for reads
system.mem_ctrls0.wrPerTurnAround::21              97      0.07%     99.99% # Writes before turning the bus around for reads
system.mem_ctrls0.wrPerTurnAround::22              17      0.01%    100.00% # Writes before turning the bus around for reads
system.mem_ctrls0.wrPerTurnAround::23               2      0.00%    100.00% # Writes before turning the bus around for reads
system.mem_ctrls0.wrPerTurnAround::24               1      0.00%    100.00% # Writes before turning the bus around for reads
system.mem_ctrls0.wrPerTurnAround::25               1      0.00%    100.00% # Writes before turning the bus around for reads
system.mem_ctrls0.wrPerTurnAround::total       145597                       # Writes before turning the bus around for reads
system.mem_ctrls0.totQLat                148524585375                       # Total ticks spent queuing
system.mem_ctrls0.totMemAccLat           285120510375                       # Total ticks spent from burst creation until serviced by the DRAM
system.mem_ctrls0.totBusLat               36425580000                       # Total ticks spent in databus transfers
system.mem_ctrls0.avgQLat                    20387.40                       # Average queueing delay per DRAM burst
system.mem_ctrls0.avgBusLat                   5000.00                       # Average bus latency per DRAM burst
system.mem_ctrls0.avgMemAccLat               39137.40                       # Average memory access latency per DRAM burst
system.mem_ctrls0.avgRdBW                      126.45                       # Average DRAM read bandwidth in MiByte/s
system.mem_ctrls0.avgWrBW                       44.74                       # Average achieved write bandwidth in MiByte/s
system.mem_ctrls0.avgRdBWSys                   126.56                       # Average system read bandwidth in MiByte/s
system.mem_ctrls0.avgWrBWSys                    44.74                       # Average system write bandwidth in MiByte/s
system.mem_ctrls0.peakBW                     12800.00                       # Theoretical peak bandwidth in MiByte/s
system.mem_ctrls0.busUtil                        1.34                       # Data bus utilization in percentage
system.mem_ctrls0.busUtilRead                    0.99                       # Data bus utilization in percentage for reads
system.mem_ctrls0.busUtilWrite                   0.35                       # Data bus utilization in percentage for writes
system.mem_ctrls0.avgRdQLen                      1.02                       # Average read queue length when enqueuing
system.mem_ctrls0.avgWrQLen                     24.56                       # Average write queue length when enqueuing
system.mem_ctrls0.readRowHits                 4525929                       # Number of row buffer hits during reads
system.mem_ctrls0.writeRowHits                 649970                       # Number of row buffer hits during writes
system.mem_ctrls0.readRowHitRate                62.13                       # Row buffer hit rate for reads
system.mem_ctrls0.writeRowHitRate               25.22                       # Row buffer hit rate for writes
system.mem_ctrls0.avgGap                    373633.50                       # Average gap between requests
system.mem_ctrls0.pageHitRate                   52.48                       # Row buffer hit rate, read and write combined
system.mem_ctrls0_0.actEnergy             16809480660                       # Energy for activate commands per rank (pJ)
system.mem_ctrls0_0.preEnergy              8934435675                       # Energy for precharge commands per rank (pJ)
system.mem_ctrls0_0.readEnergy            26296627140                       # Energy for read commands per rank (pJ)
system.mem_ctrls0_0.writeEnergy            6772981320                       # Energy for write commands per rank (pJ)
system.mem_ctrls0_0.refreshEnergy        278755835280.000061                       # Energy for refresh commands per rank (pJ)
system.mem_ctrls0_0.actBackEnergy        167380114680                       # Energy for active background per rank (pJ)
system.mem_ctrls0_0.preBackEnergy          7952159040                       # Energy for precharge background per rank (pJ)
system.mem_ctrls0_0.actPowerDownEnergy   1136260398720                       # Energy for active power-down per rank (pJ)
system.mem_ctrls0_0.prePowerDownEnergy   193665890400                       # Energy for precharge power-down per rank (pJ)
system.mem_ctrls0_0.selfRefreshEnergy     84056148090                       # Energy for self refresh per rank (pJ)
system.mem_ctrls0_0.totalEnergy          1927025731875                       # Total energy per rank (pJ)
system.mem_ctrls0_0.averagePower           522.623883                       # Core power per rank (mW)
system.mem_ctrls0_0.totalIdleTime        3299130817217                       # Total Idle time Per DRAM Rank
system.mem_ctrls0_0.memoryStateTime::IDLE   7980107642                       # Time in different power states
system.mem_ctrls0_0.memoryStateTime::REF 118054444000                       # Time in different power states
system.mem_ctrls0_0.memoryStateTime::SREF 302990114956                       # Time in different power states
system.mem_ctrls0_0.memoryStateTime::PRE_PDN 504337462187                       # Time in different power states
system.mem_ctrls0_0.memoryStateTime::ACT 262047160816                       # Time in different power states
system.mem_ctrls0_0.memoryStateTime::ACT_PDN 2491803957914                       # Time in different power states
system.mem_ctrls0_1.actEnergy             16652472060                       # Energy for activate commands per rank (pJ)
system.mem_ctrls0_1.preEnergy              8850991215                       # Energy for precharge commands per rank (pJ)
system.mem_ctrls0_1.readEnergy            25719101100                       # Energy for read commands per rank (pJ)
system.mem_ctrls0_1.writeEnergy            6680686500                       # Energy for write commands per rank (pJ)
system.mem_ctrls0_1.refreshEnergy        277691278800.000061                       # Energy for refresh commands per rank (pJ)
system.mem_ctrls0_1.actBackEnergy        167998675260                       # Energy for active background per rank (pJ)
system.mem_ctrls0_1.preBackEnergy          8012291520                       # Energy for precharge background per rank (pJ)
system.mem_ctrls0_1.actPowerDownEnergy   1125192342780                       # Energy for active power-down per rank (pJ)
system.mem_ctrls0_1.prePowerDownEnergy   194237114880                       # Energy for precharge power-down per rank (pJ)
system.mem_ctrls0_1.selfRefreshEnergy     89750959545                       # Energy for self refresh per rank (pJ)
system.mem_ctrls0_1.totalEnergy          1920913636320                       # Total energy per rank (pJ)
system.mem_ctrls0_1.averagePower           520.966239                       # Core power per rank (mW)
system.mem_ctrls0_1.totalIdleTime        3297640130119                       # Total Idle time Per DRAM Rank
system.mem_ctrls0_1.memoryStateTime::IDLE   8238758431                       # Time in different power states
system.mem_ctrls0_1.memoryStateTime::REF 117609836000                       # Time in different power states
system.mem_ctrls0_1.memoryStateTime::SREF 324292540107                       # Time in different power states
system.mem_ctrls0_1.memoryStateTime::PRE_PDN 505822070587                       # Time in different power states
system.mem_ctrls0_1.memoryStateTime::ACT 263723135989                       # Time in different power states
system.mem_ctrls0_1.memoryStateTime::ACT_PDN 2467526906401                       # Time in different power states
system.mem_ctrls1.pwrStateResidencyTicks::UNDEFINED 73717185828861                       # Cumulative time (in ticks) in various power states
system.mem_ctrls1.bytes_read::cpu.inst             64                       # Number of bytes read from this memory
system.mem_ctrls1.bytes_read::switch_cpus.inst       118720                       # Number of bytes read from this memory
system.mem_ctrls1.bytes_read::switch_cpus.data    386035648                       # Number of bytes read from this memory
system.mem_ctrls1.bytes_read::switch_cpus_1.inst        37376                       # Number of bytes read from this memory
system.mem_ctrls1.bytes_read::switch_cpus_1.data     80695488                       # Number of bytes read from this memory
system.mem_ctrls1.bytes_read::total         466887296                       # Number of bytes read from this memory
system.mem_ctrls1.bytes_inst_read::cpu.inst           64                       # Number of instructions bytes read from this memory
system.mem_ctrls1.bytes_inst_read::switch_cpus.inst       118720                       # Number of instructions bytes read from this memory
system.mem_ctrls1.bytes_inst_read::switch_cpus_1.inst        37376                       # Number of instructions bytes read from this memory
system.mem_ctrls1.bytes_inst_read::total       156160                       # Number of instructions bytes read from this memory
system.mem_ctrls1.bytes_written::writebacks    165017088                       # Number of bytes written to this memory
system.mem_ctrls1.bytes_written::total      165017088                       # Number of bytes written to this memory
system.mem_ctrls1.num_reads::cpu.inst               1                       # Number of read requests responded to by this memory
system.mem_ctrls1.num_reads::switch_cpus.inst         1855                       # Number of read requests responded to by this memory
system.mem_ctrls1.num_reads::switch_cpus.data      6031807                       # Number of read requests responded to by this memory
system.mem_ctrls1.num_reads::switch_cpus_1.inst          584                       # Number of read requests responded to by this memory
system.mem_ctrls1.num_reads::switch_cpus_1.data      1260867                       # Number of read requests responded to by this memory
system.mem_ctrls1.num_reads::total            7295114                       # Number of read requests responded to by this memory
system.mem_ctrls1.num_writes::writebacks      2578392                       # Number of write requests responded to by this memory
system.mem_ctrls1.num_writes::total           2578392                       # Number of write requests responded to by this memory
system.mem_ctrls1.bw_read::cpu.inst                17                       # Total read bandwidth from this memory (bytes/s)
system.mem_ctrls1.bw_read::switch_cpus.inst        32198                       # Total read bandwidth from this memory (bytes/s)
system.mem_ctrls1.bw_read::switch_cpus.data    104695775                       # Total read bandwidth from this memory (bytes/s)
system.mem_ctrls1.bw_read::switch_cpus_1.inst        10137                       # Total read bandwidth from this memory (bytes/s)
system.mem_ctrls1.bw_read::switch_cpus_1.data     21885224                       # Total read bandwidth from this memory (bytes/s)
system.mem_ctrls1.bw_read::total            126623351                       # Total read bandwidth from this memory (bytes/s)
system.mem_ctrls1.bw_inst_read::cpu.inst           17                       # Instruction read bandwidth from this memory (bytes/s)
system.mem_ctrls1.bw_inst_read::switch_cpus.inst        32198                       # Instruction read bandwidth from this memory (bytes/s)
system.mem_ctrls1.bw_inst_read::switch_cpus_1.inst        10137                       # Instruction read bandwidth from this memory (bytes/s)
system.mem_ctrls1.bw_inst_read::total           42352                       # Instruction read bandwidth from this memory (bytes/s)
system.mem_ctrls1.bw_write::writebacks       44753877                       # Write bandwidth from this memory (bytes/s)
system.mem_ctrls1.bw_write::total            44753877                       # Write bandwidth from this memory (bytes/s)
system.mem_ctrls1.bw_total::writebacks       44753877                       # Total bandwidth to/from this memory (bytes/s)
system.mem_ctrls1.bw_total::cpu.inst               17                       # Total bandwidth to/from this memory (bytes/s)
system.mem_ctrls1.bw_total::switch_cpus.inst        32198                       # Total bandwidth to/from this memory (bytes/s)
system.mem_ctrls1.bw_total::switch_cpus.data    104695775                       # Total bandwidth to/from this memory (bytes/s)
system.mem_ctrls1.bw_total::switch_cpus_1.inst        10137                       # Total bandwidth to/from this memory (bytes/s)
system.mem_ctrls1.bw_total::switch_cpus_1.data     21885224                       # Total bandwidth to/from this memory (bytes/s)
system.mem_ctrls1.bw_total::total           171377228                       # Total bandwidth to/from this memory (bytes/s)
system.mem_ctrls1.readReqs                    7295114                       # Number of read requests accepted
system.mem_ctrls1.writeReqs                   2578392                       # Number of write requests accepted
system.mem_ctrls1.readBursts                  7295114                       # Number of DRAM read bursts, including those serviced by the write queue
system.mem_ctrls1.writeBursts                 2578392                       # Number of DRAM write bursts, including those merged in the write queue
system.mem_ctrls1.bytesReadDRAM             466499008                       # Total number of bytes read from DRAM
system.mem_ctrls1.bytesReadWrQ                 388288                       # Total number of bytes read from write queue
system.mem_ctrls1.bytesWritten              165015488                       # Total number of bytes written to DRAM
system.mem_ctrls1.bytesReadSys              466887296                       # Total read bytes from the system interface side
system.mem_ctrls1.bytesWrittenSys           165017088                       # Total written bytes from the system interface side
system.mem_ctrls1.servicedByWrQ                  6067                       # Number of DRAM read bursts serviced by the write queue
system.mem_ctrls1.mergedWrBursts                    0                       # Number of DRAM write bursts merged with an existing one
system.mem_ctrls1.neitherReadNorWriteReqs            0                       # Number of requests that are neither read nor write
system.mem_ctrls1.perBankRdBursts::0           477936                       # Per bank write bursts
system.mem_ctrls1.perBankRdBursts::1           460358                       # Per bank write bursts
system.mem_ctrls1.perBankRdBursts::2           457013                       # Per bank write bursts
system.mem_ctrls1.perBankRdBursts::3           461397                       # Per bank write bursts
system.mem_ctrls1.perBankRdBursts::4           459101                       # Per bank write bursts
system.mem_ctrls1.perBankRdBursts::5           468189                       # Per bank write bursts
system.mem_ctrls1.perBankRdBursts::6           447302                       # Per bank write bursts
system.mem_ctrls1.perBankRdBursts::7           454651                       # Per bank write bursts
system.mem_ctrls1.perBankRdBursts::8           467025                       # Per bank write bursts
system.mem_ctrls1.perBankRdBursts::9           449413                       # Per bank write bursts
system.mem_ctrls1.perBankRdBursts::10          447505                       # Per bank write bursts
system.mem_ctrls1.perBankRdBursts::11          453159                       # Per bank write bursts
system.mem_ctrls1.perBankRdBursts::12          443918                       # Per bank write bursts
system.mem_ctrls1.perBankRdBursts::13          443677                       # Per bank write bursts
system.mem_ctrls1.perBankRdBursts::14          444297                       # Per bank write bursts
system.mem_ctrls1.perBankRdBursts::15          454106                       # Per bank write bursts
system.mem_ctrls1.perBankWrBursts::0           170342                       # Per bank write bursts
system.mem_ctrls1.perBankWrBursts::1           159670                       # Per bank write bursts
system.mem_ctrls1.perBankWrBursts::2           165106                       # Per bank write bursts
system.mem_ctrls1.perBankWrBursts::3           163378                       # Per bank write bursts
system.mem_ctrls1.perBankWrBursts::4           162796                       # Per bank write bursts
system.mem_ctrls1.perBankWrBursts::5           162591                       # Per bank write bursts
system.mem_ctrls1.perBankWrBursts::6           157189                       # Per bank write bursts
system.mem_ctrls1.perBankWrBursts::7           158017                       # Per bank write bursts
system.mem_ctrls1.perBankWrBursts::8           158270                       # Per bank write bursts
system.mem_ctrls1.perBankWrBursts::9           154647                       # Per bank write bursts
system.mem_ctrls1.perBankWrBursts::10          155893                       # Per bank write bursts
system.mem_ctrls1.perBankWrBursts::11          156315                       # Per bank write bursts
system.mem_ctrls1.perBankWrBursts::12          154123                       # Per bank write bursts
system.mem_ctrls1.perBankWrBursts::13          160504                       # Per bank write bursts
system.mem_ctrls1.perBankWrBursts::14          168984                       # Per bank write bursts
system.mem_ctrls1.perBankWrBursts::15          170542                       # Per bank write bursts
system.mem_ctrls1.numRdRetry                        0                       # Number of times read queue was full causing retry
system.mem_ctrls1.numWrRetry                        0                       # Number of times write queue was full causing retry
system.mem_ctrls1.totGap                 3687213085344                       # Total gap between requests
system.mem_ctrls1.readPktSize::0                    0                       # Read request sizes (log2)
system.mem_ctrls1.readPktSize::1                    0                       # Read request sizes (log2)
system.mem_ctrls1.readPktSize::2                    0                       # Read request sizes (log2)
system.mem_ctrls1.readPktSize::3                    0                       # Read request sizes (log2)
system.mem_ctrls1.readPktSize::4                    0                       # Read request sizes (log2)
system.mem_ctrls1.readPktSize::5                    0                       # Read request sizes (log2)
system.mem_ctrls1.readPktSize::6              7295114                       # Read request sizes (log2)
system.mem_ctrls1.writePktSize::0                   0                       # Write request sizes (log2)
system.mem_ctrls1.writePktSize::1                   0                       # Write request sizes (log2)
system.mem_ctrls1.writePktSize::2                   0                       # Write request sizes (log2)
system.mem_ctrls1.writePktSize::3                   0                       # Write request sizes (log2)
system.mem_ctrls1.writePktSize::4                   0                       # Write request sizes (log2)
system.mem_ctrls1.writePktSize::5                   0                       # Write request sizes (log2)
system.mem_ctrls1.writePktSize::6             2578392                       # Write request sizes (log2)
system.mem_ctrls1.rdQLenPdf::0                6962016                       # What read queue length does an incoming req see
system.mem_ctrls1.rdQLenPdf::1                 283192                       # What read queue length does an incoming req see
system.mem_ctrls1.rdQLenPdf::2                  40455                       # What read queue length does an incoming req see
system.mem_ctrls1.rdQLenPdf::3                   3383                       # What read queue length does an incoming req see
system.mem_ctrls1.rdQLenPdf::4                      1                       # What read queue length does an incoming req see
system.mem_ctrls1.rdQLenPdf::5                      0                       # What read queue length does an incoming req see
system.mem_ctrls1.rdQLenPdf::6                      0                       # What read queue length does an incoming req see
system.mem_ctrls1.rdQLenPdf::7                      0                       # What read queue length does an incoming req see
system.mem_ctrls1.rdQLenPdf::8                      0                       # What read queue length does an incoming req see
system.mem_ctrls1.rdQLenPdf::9                      0                       # What read queue length does an incoming req see
system.mem_ctrls1.rdQLenPdf::10                     0                       # What read queue length does an incoming req see
system.mem_ctrls1.rdQLenPdf::11                     0                       # What read queue length does an incoming req see
system.mem_ctrls1.rdQLenPdf::12                     0                       # What read queue length does an incoming req see
system.mem_ctrls1.rdQLenPdf::13                     0                       # What read queue length does an incoming req see
system.mem_ctrls1.rdQLenPdf::14                     0                       # What read queue length does an incoming req see
system.mem_ctrls1.rdQLenPdf::15                     0                       # What read queue length does an incoming req see
system.mem_ctrls1.rdQLenPdf::16                     0                       # What read queue length does an incoming req see
system.mem_ctrls1.rdQLenPdf::17                     0                       # What read queue length does an incoming req see
system.mem_ctrls1.rdQLenPdf::18                     0                       # What read queue length does an incoming req see
system.mem_ctrls1.rdQLenPdf::19                     0                       # What read queue length does an incoming req see
system.mem_ctrls1.rdQLenPdf::20                     0                       # What read queue length does an incoming req see
system.mem_ctrls1.rdQLenPdf::21                     0                       # What read queue length does an incoming req see
system.mem_ctrls1.rdQLenPdf::22                     0                       # What read queue length does an incoming req see
system.mem_ctrls1.rdQLenPdf::23                     0                       # What read queue length does an incoming req see
system.mem_ctrls1.rdQLenPdf::24                     0                       # What read queue length does an incoming req see
system.mem_ctrls1.rdQLenPdf::25                     0                       # What read queue length does an incoming req see
system.mem_ctrls1.rdQLenPdf::26                     0                       # What read queue length does an incoming req see
system.mem_ctrls1.rdQLenPdf::27                     0                       # What read queue length does an incoming req see
system.mem_ctrls1.rdQLenPdf::28                     0                       # What read queue length does an incoming req see
system.mem_ctrls1.rdQLenPdf::29                     0                       # What read queue length does an incoming req see
system.mem_ctrls1.rdQLenPdf::30                     0                       # What read queue length does an incoming req see
system.mem_ctrls1.rdQLenPdf::31                     0                       # What read queue length does an incoming req see
system.mem_ctrls1.wrQLenPdf::0                      2                       # What write queue length does an incoming req see
system.mem_ctrls1.wrQLenPdf::1                      2                       # What write queue length does an incoming req see
system.mem_ctrls1.wrQLenPdf::2                      2                       # What write queue length does an incoming req see
system.mem_ctrls1.wrQLenPdf::3                      2                       # What write queue length does an incoming req see
system.mem_ctrls1.wrQLenPdf::4                      2                       # What write queue length does an incoming req see
system.mem_ctrls1.wrQLenPdf::5                      2                       # What write queue length does an incoming req see
system.mem_ctrls1.wrQLenPdf::6                      2                       # What write queue length does an incoming req see
system.mem_ctrls1.wrQLenPdf::7                      2                       # What write queue length does an incoming req see
system.mem_ctrls1.wrQLenPdf::8                      2                       # What write queue length does an incoming req see
system.mem_ctrls1.wrQLenPdf::9                      2                       # What write queue length does an incoming req see
system.mem_ctrls1.wrQLenPdf::10                     2                       # What write queue length does an incoming req see
system.mem_ctrls1.wrQLenPdf::11                     2                       # What write queue length does an incoming req see
system.mem_ctrls1.wrQLenPdf::12                     2                       # What write queue length does an incoming req see
system.mem_ctrls1.wrQLenPdf::13                     2                       # What write queue length does an incoming req see
system.mem_ctrls1.wrQLenPdf::14                     2                       # What write queue length does an incoming req see
system.mem_ctrls1.wrQLenPdf::15                117348                       # What write queue length does an incoming req see
system.mem_ctrls1.wrQLenPdf::16                121599                       # What write queue length does an incoming req see
system.mem_ctrls1.wrQLenPdf::17                143787                       # What write queue length does an incoming req see
system.mem_ctrls1.wrQLenPdf::18                145914                       # What write queue length does an incoming req see
system.mem_ctrls1.wrQLenPdf::19                146236                       # What write queue length does an incoming req see
system.mem_ctrls1.wrQLenPdf::20                146260                       # What write queue length does an incoming req see
system.mem_ctrls1.wrQLenPdf::21                146412                       # What write queue length does an incoming req see
system.mem_ctrls1.wrQLenPdf::22                147035                       # What write queue length does an incoming req see
system.mem_ctrls1.wrQLenPdf::23                147632                       # What write queue length does an incoming req see
system.mem_ctrls1.wrQLenPdf::24                146767                       # What write queue length does an incoming req see
system.mem_ctrls1.wrQLenPdf::25                146358                       # What write queue length does an incoming req see
system.mem_ctrls1.wrQLenPdf::26                146217                       # What write queue length does an incoming req see
system.mem_ctrls1.wrQLenPdf::27                146175                       # What write queue length does an incoming req see
system.mem_ctrls1.wrQLenPdf::28                146191                       # What write queue length does an incoming req see
system.mem_ctrls1.wrQLenPdf::29                146223                       # What write queue length does an incoming req see
system.mem_ctrls1.wrQLenPdf::30                146628                       # What write queue length does an incoming req see
system.mem_ctrls1.wrQLenPdf::31                145726                       # What write queue length does an incoming req see
system.mem_ctrls1.wrQLenPdf::32                145666                       # What write queue length does an incoming req see
system.mem_ctrls1.wrQLenPdf::33                   142                       # What write queue length does an incoming req see
system.mem_ctrls1.wrQLenPdf::34                    41                       # What write queue length does an incoming req see
system.mem_ctrls1.wrQLenPdf::35                     4                       # What write queue length does an incoming req see
system.mem_ctrls1.wrQLenPdf::36                     1                       # What write queue length does an incoming req see
system.mem_ctrls1.wrQLenPdf::37                     0                       # What write queue length does an incoming req see
system.mem_ctrls1.wrQLenPdf::38                     0                       # What write queue length does an incoming req see
system.mem_ctrls1.wrQLenPdf::39                     0                       # What write queue length does an incoming req see
system.mem_ctrls1.wrQLenPdf::40                     0                       # What write queue length does an incoming req see
system.mem_ctrls1.wrQLenPdf::41                     0                       # What write queue length does an incoming req see
system.mem_ctrls1.wrQLenPdf::42                     0                       # What write queue length does an incoming req see
system.mem_ctrls1.wrQLenPdf::43                     0                       # What write queue length does an incoming req see
system.mem_ctrls1.wrQLenPdf::44                     0                       # What write queue length does an incoming req see
system.mem_ctrls1.wrQLenPdf::45                     0                       # What write queue length does an incoming req see
system.mem_ctrls1.wrQLenPdf::46                     0                       # What write queue length does an incoming req see
system.mem_ctrls1.wrQLenPdf::47                     0                       # What write queue length does an incoming req see
system.mem_ctrls1.wrQLenPdf::48                     0                       # What write queue length does an incoming req see
system.mem_ctrls1.wrQLenPdf::49                     0                       # What write queue length does an incoming req see
system.mem_ctrls1.wrQLenPdf::50                     0                       # What write queue length does an incoming req see
system.mem_ctrls1.wrQLenPdf::51                     0                       # What write queue length does an incoming req see
system.mem_ctrls1.wrQLenPdf::52                     0                       # What write queue length does an incoming req see
system.mem_ctrls1.wrQLenPdf::53                     0                       # What write queue length does an incoming req see
system.mem_ctrls1.wrQLenPdf::54                     0                       # What write queue length does an incoming req see
system.mem_ctrls1.wrQLenPdf::55                     0                       # What write queue length does an incoming req see
system.mem_ctrls1.wrQLenPdf::56                     0                       # What write queue length does an incoming req see
system.mem_ctrls1.wrQLenPdf::57                     0                       # What write queue length does an incoming req see
system.mem_ctrls1.wrQLenPdf::58                     0                       # What write queue length does an incoming req see
system.mem_ctrls1.wrQLenPdf::59                     0                       # What write queue length does an incoming req see
system.mem_ctrls1.wrQLenPdf::60                     0                       # What write queue length does an incoming req see
system.mem_ctrls1.wrQLenPdf::61                     0                       # What write queue length does an incoming req see
system.mem_ctrls1.wrQLenPdf::62                     0                       # What write queue length does an incoming req see
system.mem_ctrls1.wrQLenPdf::63                     0                       # What write queue length does an incoming req see
system.mem_ctrls1.bytesPerActivate::samples      4694275                       # Bytes accessed per row activation
system.mem_ctrls1.bytesPerActivate::mean   134.528586                       # Bytes accessed per row activation
system.mem_ctrls1.bytesPerActivate::gmean    96.617888                       # Bytes accessed per row activation
system.mem_ctrls1.bytesPerActivate::stdev   163.051155                       # Bytes accessed per row activation
system.mem_ctrls1.bytesPerActivate::0-127      3101501     66.07%     66.07% # Bytes accessed per row activation
system.mem_ctrls1.bytesPerActivate::128-255      1001111     21.33%     87.40% # Bytes accessed per row activation
system.mem_ctrls1.bytesPerActivate::256-383       245904      5.24%     92.63% # Bytes accessed per row activation
system.mem_ctrls1.bytesPerActivate::384-511       108944      2.32%     94.96% # Bytes accessed per row activation
system.mem_ctrls1.bytesPerActivate::512-639        77271      1.65%     96.60% # Bytes accessed per row activation
system.mem_ctrls1.bytesPerActivate::640-767        54012      1.15%     97.75% # Bytes accessed per row activation
system.mem_ctrls1.bytesPerActivate::768-895        36083      0.77%     98.52% # Bytes accessed per row activation
system.mem_ctrls1.bytesPerActivate::896-1023        24416      0.52%     99.04% # Bytes accessed per row activation
system.mem_ctrls1.bytesPerActivate::1024-1151        45033      0.96%    100.00% # Bytes accessed per row activation
system.mem_ctrls1.bytesPerActivate::total      4694275                       # Bytes accessed per row activation
system.mem_ctrls1.rdPerTurnAround::samples       145629                       # Reads before turning the bus around for writes
system.mem_ctrls1.rdPerTurnAround::mean     50.051968                       # Reads before turning the bus around for writes
system.mem_ctrls1.rdPerTurnAround::stdev   111.271111                       # Reads before turning the bus around for writes
system.mem_ctrls1.rdPerTurnAround::0-1023       145453     99.88%     99.88% # Reads before turning the bus around for writes
system.mem_ctrls1.rdPerTurnAround::1024-2047          144      0.10%     99.98% # Reads before turning the bus around for writes
system.mem_ctrls1.rdPerTurnAround::2048-3071           24      0.02%     99.99% # Reads before turning the bus around for writes
system.mem_ctrls1.rdPerTurnAround::3072-4095            7      0.00%    100.00% # Reads before turning the bus around for writes
system.mem_ctrls1.rdPerTurnAround::30720-31743            1      0.00%    100.00% # Reads before turning the bus around for writes
system.mem_ctrls1.rdPerTurnAround::total       145629                       # Reads before turning the bus around for writes
system.mem_ctrls1.wrPerTurnAround::samples       145629                       # Writes before turning the bus around for reads
system.mem_ctrls1.wrPerTurnAround::mean     17.705038                       # Writes before turning the bus around for reads
system.mem_ctrls1.wrPerTurnAround::gmean    17.685046                       # Writes before turning the bus around for reads
system.mem_ctrls1.wrPerTurnAround::stdev     0.826293                       # Writes before turning the bus around for reads
system.mem_ctrls1.wrPerTurnAround::16           24299     16.69%     16.69% # Writes before turning the bus around for reads
system.mem_ctrls1.wrPerTurnAround::17            3385      2.32%     19.01% # Writes before turning the bus around for reads
system.mem_ctrls1.wrPerTurnAround::18          109899     75.47%     94.48% # Writes before turning the bus around for reads
system.mem_ctrls1.wrPerTurnAround::19            7225      4.96%     99.44% # Writes before turning the bus around for reads
system.mem_ctrls1.wrPerTurnAround::20             701      0.48%     99.92% # Writes before turning the bus around for reads
system.mem_ctrls1.wrPerTurnAround::21              94      0.06%     99.98% # Writes before turning the bus around for reads
system.mem_ctrls1.wrPerTurnAround::22              21      0.01%    100.00% # Writes before turning the bus around for reads
system.mem_ctrls1.wrPerTurnAround::23               3      0.00%    100.00% # Writes before turning the bus around for reads
system.mem_ctrls1.wrPerTurnAround::24               1      0.00%    100.00% # Writes before turning the bus around for reads
system.mem_ctrls1.wrPerTurnAround::32               1      0.00%    100.00% # Writes before turning the bus around for reads
system.mem_ctrls1.wrPerTurnAround::total       145629                       # Writes before turning the bus around for reads
system.mem_ctrls1.totQLat                148098953945                       # Total ticks spent queuing
system.mem_ctrls1.totMemAccLat           284768585195                       # Total ticks spent from burst creation until serviced by the DRAM
system.mem_ctrls1.totBusLat               36445235000                       # Total ticks spent in databus transfers
system.mem_ctrls1.avgQLat                    20318.01                       # Average queueing delay per DRAM burst
system.mem_ctrls1.avgBusLat                   5000.00                       # Average bus latency per DRAM burst
system.mem_ctrls1.avgMemAccLat               39068.01                       # Average memory access latency per DRAM burst
system.mem_ctrls1.avgRdBW                      126.52                       # Average DRAM read bandwidth in MiByte/s
system.mem_ctrls1.avgWrBW                       44.75                       # Average achieved write bandwidth in MiByte/s
system.mem_ctrls1.avgRdBWSys                   126.62                       # Average system read bandwidth in MiByte/s
system.mem_ctrls1.avgWrBWSys                    44.75                       # Average system write bandwidth in MiByte/s
system.mem_ctrls1.peakBW                     12800.00                       # Theoretical peak bandwidth in MiByte/s
system.mem_ctrls1.busUtil                        1.34                       # Data bus utilization in percentage
system.mem_ctrls1.busUtilRead                    0.99                       # Data bus utilization in percentage for reads
system.mem_ctrls1.busUtilWrite                   0.35                       # Data bus utilization in percentage for writes
system.mem_ctrls1.avgRdQLen                      1.02                       # Average read queue length when enqueuing
system.mem_ctrls1.avgWrQLen                     24.58                       # Average write queue length when enqueuing
system.mem_ctrls1.readRowHits                 4523277                       # Number of row buffer hits during reads
system.mem_ctrls1.writeRowHits                 649858                       # Number of row buffer hits during writes
system.mem_ctrls1.readRowHitRate                62.06                       # Row buffer hit rate for reads
system.mem_ctrls1.writeRowHitRate               25.20                       # Row buffer hit rate for writes
system.mem_ctrls1.avgGap                    373445.17                       # Average gap between requests
system.mem_ctrls1.pageHitRate                   52.43                       # Row buffer hit rate, read and write combined
system.mem_ctrls1_0.actEnergy             16844845080                       # Energy for activate commands per rank (pJ)
system.mem_ctrls1_0.preEnergy              8953247490                       # Energy for precharge commands per rank (pJ)
system.mem_ctrls1_0.readEnergy            26317661580                       # Energy for read commands per rank (pJ)
system.mem_ctrls1_0.writeEnergy            6781244580                       # Energy for write commands per rank (pJ)
system.mem_ctrls1_0.refreshEnergy        278772430560.000061                       # Energy for refresh commands per rank (pJ)
system.mem_ctrls1_0.actBackEnergy        167550561210                       # Energy for active background per rank (pJ)
system.mem_ctrls1_0.preBackEnergy          7902955680                       # Energy for precharge background per rank (pJ)
system.mem_ctrls1_0.actPowerDownEnergy   1139386305510                       # Energy for active power-down per rank (pJ)
system.mem_ctrls1_0.prePowerDownEnergy   192460542240                       # Energy for precharge power-down per rank (pJ)
system.mem_ctrls1_0.selfRefreshEnergy     82817034735                       # Energy for self refresh per rank (pJ)
system.mem_ctrls1_0.totalEnergy          1927924925205                       # Total energy per rank (pJ)
system.mem_ctrls1_0.averagePower           522.867753                       # Core power per rank (mW)
system.mem_ctrls1_0.totalIdleTime        3298898637287                       # Total Idle time Per DRAM Rank
system.mem_ctrls1_0.memoryStateTime::IDLE   7827756286                       # Time in different power states
system.mem_ctrls1_0.memoryStateTime::REF 118057786000                       # Time in different power states
system.mem_ctrls1_0.memoryStateTime::SREF 299036329333                       # Time in different power states
system.mem_ctrls1_0.memoryStateTime::PRE_PDN 501195784962                       # Time in different power states
system.mem_ctrls1_0.memoryStateTime::ACT 262428833672                       # Time in different power states
system.mem_ctrls1_0.memoryStateTime::ACT_PDN 2498666757262                       # Time in different power states
system.mem_ctrls1_1.actEnergy             16672306980                       # Energy for activate commands per rank (pJ)
system.mem_ctrls1_1.preEnergy              8861526135                       # Energy for precharge commands per rank (pJ)
system.mem_ctrls1_1.readEnergy            25726134000                       # Energy for read commands per rank (pJ)
system.mem_ctrls1_1.writeEnergy            6677831160                       # Energy for write commands per rank (pJ)
system.mem_ctrls1_1.refreshEnergy        277664234640.000061                       # Energy for refresh commands per rank (pJ)
system.mem_ctrls1_1.actBackEnergy        168185084640                       # Energy for active background per rank (pJ)
system.mem_ctrls1_1.preBackEnergy          8003908320                       # Energy for precharge background per rank (pJ)
system.mem_ctrls1_1.actPowerDownEnergy   1125464722410                       # Energy for active power-down per rank (pJ)
system.mem_ctrls1_1.prePowerDownEnergy   193999982880                       # Energy for precharge power-down per rank (pJ)
system.mem_ctrls1_1.selfRefreshEnergy     89610020340                       # Energy for self refresh per rank (pJ)
system.mem_ctrls1_1.totalEnergy          1921000546785                       # Total energy per rank (pJ)
system.mem_ctrls1_1.averagePower           520.989810                       # Core power per rank (mW)
system.mem_ctrls1_1.totalIdleTime        3297252779564                       # Total Idle time Per DRAM Rank
system.mem_ctrls1_1.memoryStateTime::IDLE   8232605041                       # Time in different power states
system.mem_ctrls1_1.memoryStateTime::REF 117597634000                       # Time in different power states
system.mem_ctrls1_1.memoryStateTime::SREF 323910101722                       # Time in different power states
system.mem_ctrls1_1.memoryStateTime::PRE_PDN 505210115727                       # Time in different power states
system.mem_ctrls1_1.memoryStateTime::ACT 264130106474                       # Time in different power states
system.mem_ctrls1_1.memoryStateTime::ACT_PDN 2468132684551                       # Time in different power states
system.pwrStateResidencyTicks::UNDEFINED 73717185828861                       # Cumulative time (in ticks) in various power states
system.cpu.branchPred.lookups                       1                       # Number of BP lookups
system.cpu.branchPred.condPredicted                 1                       # Number of conditional branches predicted
system.cpu.branchPred.condIncorrect                 0                       # Number of conditional branches incorrect
system.cpu.branchPred.BTBLookups                    0                       # Number of BTB lookups
system.cpu.branchPred.BTBHits                       0                       # Number of BTB hits
system.cpu.branchPred.BTBCorrect                    0                       # Number of correct BTB predictions (this stat may not work properly.
system.cpu.branchPred.BTBHitPct                   nan                       # BTB Hit Percentage
system.cpu.branchPred.usedRAS                       0                       # Number of times the RAS was used to get a target.
system.cpu.branchPred.RASInCorrect                  0                       # Number of incorrect RAS predictions.
system.cpu.branchPred.indirectLookups               0                       # Number of indirect predictor lookups.
system.cpu.branchPred.indirectHits                  0                       # Number of indirect target hits.
system.cpu.branchPred.indirectMisses                0                       # Number of indirect misses.
system.cpu.branchPredindirectMispredicted            0                       # Number of mispredicted indirect branches.
system.cpu_voltage_domain.voltage                   1                       # Voltage in Volts
system.cpu_clk_domain.clock                       333                       # Clock period in ticks
system.cpu.dtb.fetch_hits                           0                       # ITB hits
system.cpu.dtb.fetch_misses                         0                       # ITB misses
system.cpu.dtb.fetch_acv                            0                       # ITB acv
system.cpu.dtb.fetch_accesses                       0                       # ITB accesses
system.cpu.dtb.read_hits                            2                       # DTB read hits
system.cpu.dtb.read_misses                          0                       # DTB read misses
system.cpu.dtb.read_acv                             0                       # DTB read access violations
system.cpu.dtb.read_accesses                        2                       # DTB read accesses
system.cpu.dtb.write_hits                           0                       # DTB write hits
system.cpu.dtb.write_misses                         0                       # DTB write misses
system.cpu.dtb.write_acv                            0                       # DTB write access violations
system.cpu.dtb.write_accesses                       0                       # DTB write accesses
system.cpu.dtb.data_hits                            2                       # DTB hits
system.cpu.dtb.data_misses                          0                       # DTB misses
system.cpu.dtb.data_acv                             0                       # DTB access violations
system.cpu.dtb.data_accesses                        2                       # DTB accesses
system.cpu.itb.fetch_hits                           3                       # ITB hits
system.cpu.itb.fetch_misses                         0                       # ITB misses
system.cpu.itb.fetch_acv                            0                       # ITB acv
system.cpu.itb.fetch_accesses                       3                       # ITB accesses
system.cpu.itb.read_hits                            0                       # DTB read hits
system.cpu.itb.read_misses                          0                       # DTB read misses
system.cpu.itb.read_acv                             0                       # DTB read access violations
system.cpu.itb.read_accesses                        0                       # DTB read accesses
system.cpu.itb.write_hits                           0                       # DTB write hits
system.cpu.itb.write_misses                         0                       # DTB write misses
system.cpu.itb.write_acv                            0                       # DTB write access violations
system.cpu.itb.write_accesses                       0                       # DTB write accesses
system.cpu.itb.data_hits                            0                       # DTB hits
system.cpu.itb.data_misses                          0                       # DTB misses
system.cpu.itb.data_acv                             0                       # DTB access violations
system.cpu.itb.data_accesses                        0                       # DTB accesses
system.cpu.workload.num_syscalls                    5                       # Number of system calls
system.cpu.pwrStateResidencyTicks::ON    3687213247515                       # Cumulative time (in ticks) in various power states
system.cpu.numCycles                              492                       # number of cpu cycles simulated
system.cpu.numWorkItemsStarted                      0                       # number of work items this cpu started
system.cpu.numWorkItemsCompleted                    0                       # number of work items this cpu completed
system.cpu.fetch.icacheStallCycles                 18                       # Number of cycles fetch is stalled on an Icache miss
system.cpu.fetch.Insts                             10                       # Number of instructions fetch has processed
system.cpu.fetch.Branches                           1                       # Number of branches that fetch encountered
system.cpu.fetch.Cycles                             2                       # Number of cycles fetch has run and was not squashing or blocked
system.cpu.fetch.SquashCycles                       3                       # Number of cycles fetch has spent squashing
system.cpu.fetch.PendingDrainCycles                 3                       # Number of cycles fetch has spent waiting on pipes to drain
system.cpu.fetch.CacheLines                         3                       # Number of cache lines fetched
system.cpu.fetch.IcacheSquashes                     2                       # Number of outstanding Icache misses that were squashed
system.cpu.fetch.rateDist::samples                 24                       # Number of instructions fetched each cycle (Total)
system.cpu.fetch.rateDist::mean              0.416667                       # Number of instructions fetched each cycle (Total)
system.cpu.fetch.rateDist::stdev             1.665942                       # Number of instructions fetched each cycle (Total)
system.cpu.fetch.rateDist::underflows               0      0.00%      0.00% # Number of instructions fetched each cycle (Total)
[...]
system.switch_cpus_1.iq.int_inst_queue_wakeup_accesses    196725176                       # Number of integer instruction queue wakeup accesses
system.switch_cpus_1.iq.fp_inst_queue_reads    132776703                       # Number of floating instruction queue reads
system.switch_cpus_1.iq.fp_inst_queue_writes     84810487                       # Number of floating instruction queue writes
system.switch_cpus_1.iq.fp_inst_queue_wakeup_accesses     59462781                       # Number of floating instruction queue wakeup accesses
system.switch_cpus_1.iq.int_alu_accesses    212705633                       # Number of integer alu accesses
system.switch_cpus_1.iq.fp_alu_accesses      67903721                       # Number of floating point alu accesses
system.switch_cpus_1.iew.lsq.thread0.forwLoads      2276491                       # Number of loads that had data forwarded from stores
system.switch_cpus_1.iew.lsq.thread0.invAddrLoads            0                       # Number of loads ignored due to an invalid address
system.switch_cpus_1.iew.lsq.thread0.squashedLoads     21534408                       # Number of loads squashed
system.switch_cpus_1.iew.lsq.thread0.ignoredResponses        14755                       # Number of memory responses ignored because the instruction is squashed
system.switch_cpus_1.iew.lsq.thread0.memOrderViolation         8345                       # Number of memory ordering violations
system.switch_cpus_1.iew.lsq.thread0.squashedStores      7140044                       # Number of stores squashed
system.switch_cpus_1.iew.lsq.thread0.invAddrSwpfs            0                       # Number of software prefetches ignored due to an invalid address
system.switch_cpus_1.iew.lsq.thread0.blockedLoads            0                       # Number of blocked loads due to partial load-store forwarding
system.switch_cpus_1.iew.lsq.thread0.rescheduledLoads         6036                       # Number of loads that were rescheduled
system.switch_cpus_1.iew.lsq.thread0.cacheBlocked     12686790                       # Number of times an access to memory failed due to the cache being blocked
system.switch_cpus_1.iew.iewIdleCycles              0                       # Number of cycles IEW is idle
system.switch_cpus_1.iew.iewSquashCycles      1489009                       # Number of cycles IEW is squashing
system.switch_cpus_1.iew.iewBlockCycles     185313320                       # Number of cycles IEW is blocking
system.switch_cpus_1.iew.iewUnblockCycles     84709011                       # Number of cycles IEW is unblocking
system.switch_cpus_1.iew.iewDispatchedInsts    292339315                       # Number of instructions dispatched to IQ
system.switch_cpus_1.iew.iewDispSquashedInsts       154132                       # Number of squashed instructions skipped by dispatch
system.switch_cpus_1.iew.iewDispLoadInsts     61206127                       # Number of dispatched load instructions
system.switch_cpus_1.iew.iewDispStoreInsts     19131083                       # Number of dispatched store instructions
system.switch_cpus_1.iew.iewDispNonSpecInsts          203                       # Number of dispatched non-speculative instructions
system.switch_cpus_1.iew.iewIQFullEvents      1015525                       # Number of times the IQ has become full, causing a stall
system.switch_cpus_1.iew.iewLSQFullEvents     83156469                       # Number of times the LSQ has become full, causing a stall
system.switch_cpus_1.iew.memOrderViolationEvents         8345                       # Number of memory order violations
system.switch_cpus_1.iew.predictedTakenIncorrect       830425                       # Number of branches that were predicted taken incorrectly
system.switch_cpus_1.iew.predictedNotTakenIncorrect       565426                       # Number of branches that were predicted not taken incorrectly
system.switch_cpus_1.iew.branchMispredicts      1395851                       # Number of branch mispredicts detected at execute
system.switch_cpus_1.iew.iewExecutedInsts    272113792                       # Number of executed instructions
system.switch_cpus_1.iew.iewExecLoadInsts     68174726                       # Number of load instructions executed
system.switch_cpus_1.iew.iewExecSquashedInsts      1754590                       # Number of squashed instructions skipped in execute
system.switch_cpus_1.iew.exec_swp                   0                       # number of swp insts executed
system.switch_cpus_1.iew.exec_nop             1879215                       # number of nop insts executed
system.switch_cpus_1.iew.exec_refs           83882481                       # number of memory reference insts executed
system.switch_cpus_1.iew.exec_branches       34739666                       # Number of branches executed
system.switch_cpus_1.iew.exec_stores         15707755                       # Number of stores executed
system.switch_cpus_1.iew.exec_rate           0.359989                       # Inst execution rate
system.switch_cpus_1.iew.wb_sent            258167100                       # cumulative count of insts sent to commit
system.switch_cpus_1.iew.wb_count           256187957                       # cumulative count of insts written-back
system.switch_cpus_1.iew.wb_producers       153805212                       # num instructions producing a value
system.switch_cpus_1.iew.wb_consumers       189632929                       # num instructions consuming a value
system.switch_cpus_1.iew.wb_rate             0.338920                       # insts written-back per cycle
system.switch_cpus_1.iew.wb_fanout           0.811068                       # average fanout of values written-back
system.switch_cpus_1.commit.commitSquashedInsts     87033394                       # The number of squashed insts skipped by commit
system.switch_cpus_1.commit.commitNonSpecStalls          204                       # The number of times commit has been forced to stall to communicate backwards
system.switch_cpus_1.commit.branchMispredicts      1116372                       # The number of times a branch was mispredicted
system.switch_cpus_1.commit.committed_per_cycle::samples    743445731                       # Number of insts commited each cycle
system.switch_cpus_1.commit.committed_per_cycle::mean     0.270656                       # Number of insts commited each cycle
system.switch_cpus_1.commit.committed_per_cycle::stdev     1.349395                       # Number of insts commited each cycle
system.switch_cpus_1.commit.committed_per_cycle::underflows            0      0.00%      0.00% # Number of insts commited each cycle
system.switch_cpus_1.commit.committed_per_cycle::0    704592993     94.77%     94.77% # Number of insts commited each cycle
system.switch_cpus_1.commit.committed_per_cycle::1      9084053      1.22%     96.00% # Number of insts commited each cycle
system.switch_cpus_1.commit.committed_per_cycle::2      4000733      0.54%     96.53% # Number of insts commited each cycle
system.switch_cpus_1.commit.committed_per_cycle::3      1822368      0.25%     96.78% # Number of insts commited each cycle
system.switch_cpus_1.commit.committed_per_cycle::4      1267490      0.17%     96.95% # Number of insts commited each cycle
system.switch_cpus_1.commit.committed_per_cycle::5      1831939      0.25%     97.20% # Number of insts commited each cycle
system.switch_cpus_1.commit.committed_per_cycle::6       726365      0.10%     97.29% # Number of insts commited each cycle
system.switch_cpus_1.commit.committed_per_cycle::7       880437      0.12%     97.41% # Number of insts commited each cycle
system.switch_cpus_1.commit.committed_per_cycle::8     19239353      2.59%    100.00% # Number of insts commited each cycle
system.switch_cpus_1.commit.committed_per_cycle::overflows            0      0.00%    100.00% # Number of insts commited each cycle
system.switch_cpus_1.commit.committed_per_cycle::min_value            0                       # Number of insts commited each cycle
system.switch_cpus_1.commit.committed_per_cycle::max_value            8                       # Number of insts commited each cycle
system.switch_cpus_1.commit.committed_per_cycle::total    743445731                       # Number of insts commited each cycle
system.switch_cpus_1.commit.committedInsts    201218351                       # Number of instructions committed
system.switch_cpus_1.commit.committedOps    201218351                       # Number of ops (including micro ops) committed
system.switch_cpus_1.commit.swp_count               0                       # Number of s/w prefetches committed
system.switch_cpus_1.commit.refs             51662751                       # Number of memory references committed
system.switch_cpus_1.commit.loads            39671715                       # Number of loads committed
system.switch_cpus_1.commit.membars               102                       # Number of memory barriers committed
system.switch_cpus_1.commit.branches         28384894                       # Number of branches committed
system.switch_cpus_1.commit.fp_insts         51627815                       # Number of committed floating point instructions.
system.switch_cpus_1.commit.int_insts       168624395                       # Number of committed integer instructions.
system.switch_cpus_1.commit.function_calls       460018                       # Number of function calls committed.
system.switch_cpus_1.commit.op_class_0::No_OpClass      1218344      0.61%      0.61% # Class of committed instruction
system.switch_cpus_1.commit.op_class_0::IntAlu    117264314     58.28%     58.88% # Class of committed instruction
system.switch_cpus_1.commit.op_class_0::IntMult       166526      0.08%     58.97% # Class of committed instruction
system.switch_cpus_1.commit.op_class_0::IntDiv            0      0.00%     58.97% # Class of committed instruction
system.switch_cpus_1.commit.op_class_0::FloatAdd     18908760      9.40%     68.36% # Class of committed instruction
system.switch_cpus_1.commit.op_class_0::FloatCmp     10580725      5.26%     73.62% # Class of committed instruction
system.switch_cpus_1.commit.op_class_0::FloatCvt         1376      0.00%     73.62% # Class of committed instruction
system.switch_cpus_1.commit.op_class_0::FloatMult       880508      0.44%     74.06% # Class of committed instruction
system.switch_cpus_1.commit.op_class_0::FloatMultAcc            0      0.00%     74.06% # Class of committed instruction
system.switch_cpus_1.commit.op_class_0::FloatDiv       534945      0.27%     74.32% # Class of committed instruction
system.switch_cpus_1.commit.op_class_0::FloatMisc            0      0.00%     74.32% # Class of committed instruction
system.switch_cpus_1.commit.op_class_0::FloatSqrt            0      0.00%     74.32% # Class of committed instruction
system.switch_cpus_1.commit.op_class_0::SimdAdd            0      0.00%     74.32% # Class of committed instruction
system.switch_cpus_1.commit.op_class_0::SimdAddAcc            0      0.00%     74.32% # Class of committed instruction
system.switch_cpus_1.commit.op_class_0::SimdAlu            0      0.00%     74.32% # Class of committed instruction
system.switch_cpus_1.commit.op_class_0::SimdCmp            0      0.00%     74.32% # Class of committed instruction
system.switch_cpus_1.commit.op_class_0::SimdCvt            0      0.00%     74.32% # Class of committed instruction
system.switch_cpus_1.commit.op_class_0::SimdMisc            0      0.00%     74.32% # Class of committed instruction
system.switch_cpus_1.commit.op_class_0::SimdMult            0      0.00%     74.32% # Class of committed instruction
system.switch_cpus_1.commit.op_class_0::SimdMultAcc            0      0.00%     74.32% # Class of committed instruction
system.switch_cpus_1.commit.op_class_0::SimdShift            0      0.00%     74.32% # Class of committed instruction
system.switch_cpus_1.commit.op_class_0::SimdShiftAcc            0      0.00%     74.32% # Class of committed instruction
system.switch_cpus_1.commit.op_class_0::SimdSqrt            0      0.00%     74.32% # Class of committed instruction
system.switch_cpus_1.commit.op_class_0::SimdFloatAdd            0      0.00%     74.32% # Class of committed instruction
system.switch_cpus_1.commit.op_class_0::SimdFloatAlu            0      0.00%     74.32% # Class of committed instruction
system.switch_cpus_1.commit.op_class_0::SimdFloatCmp            0      0.00%     74.32% # Class of committed instruction
system.switch_cpus_1.commit.op_class_0::SimdFloatCvt            0      0.00%     74.32% # Class of committed instruction
system.switch_cpus_1.commit.op_class_0::SimdFloatDiv            0      0.00%     74.32% # Class of committed instruction
system.switch_cpus_1.commit.op_class_0::SimdFloatMisc            0      0.00%     74.32% # Class of committed instruction
system.switch_cpus_1.commit.op_class_0::SimdFloatMult            0      0.00%     74.32% # Class of committed instruction
system.switch_cpus_1.commit.op_class_0::SimdFloatMultAcc            0      0.00%     74.32% # Class of committed instruction
system.switch_cpus_1.commit.op_class_0::SimdFloatSqrt            0      0.00%     74.32% # Class of committed instruction
system.switch_cpus_1.commit.op_class_0::MemRead     20146503     10.01%     84.34% # Class of committed instruction
system.switch_cpus_1.commit.op_class_0::MemWrite     10794849      5.36%     89.70% # Class of committed instruction
system.switch_cpus_1.commit.op_class_0::FloatMemRead     19525314      9.70%     99.41% # Class of committed instruction
system.switch_cpus_1.commit.op_class_0::FloatMemWrite      1196187      0.59%    100.00% # Class of committed instruction
system.switch_cpus_1.commit.op_class_0::IprAccess            0      0.00%    100.00% # Class of committed instruction
system.switch_cpus_1.commit.op_class_0::InstPrefetch            0      0.00%    100.00% # Class of committed instruction
system.switch_cpus_1.commit.op_class_0::total    201218351                       # Class of committed instruction
system.switch_cpus_1.commit.bw_lim_events     19239353                       # number cycles where commit BW limit reached
system.switch_cpus_1.rob.rob_reads         1007693064                       # The number of ROB reads
system.switch_cpus_1.rob.rob_writes         588563752                       # The number of ROB writes
system.switch_cpus_1.timesIdled                  2252                       # Number of times that the entire CPU went into an idle state and unscheduled itself
system.switch_cpus_1.idleCycles                409315                       # Total number of cycles that the CPU has spent unscheduled due to idling
system.switch_cpus_1.committedInsts         200000007                       # Number of Instructions Simulated
system.switch_cpus_1.committedOps           200000007                       # Number of Ops (including micro ops) Simulated
system.switch_cpus_1.cpi                     3.779470                       # CPI: Cycles Per Instruction
system.switch_cpus_1.cpi_total               3.779470                       # CPI: Total CPI of All Threads
system.switch_cpus_1.ipc                     0.264587                       # IPC: Instructions Per Cycle
system.switch_cpus_1.ipc_total               0.264587                       # IPC: Total IPC of All Threads
system.switch_cpus_1.int_regfile_reads      354473885                       # number of integer regfile reads
system.switch_cpus_1.int_regfile_writes     160562441                       # number of integer regfile writes
system.switch_cpus_1.fp_regfile_reads        59628484                       # number of floating regfile reads
system.switch_cpus_1.fp_regfile_writes       46613901                       # number of floating regfile writes
system.switch_cpus_1.misc_regfile_reads           243                       # number of misc regfile reads
system.switch_cpus_1.misc_regfile_writes          204                       # number of misc regfile writes
system.tol3bus.snoop_filter.tot_requests     51975554                       # Total number of requests made to the snoop filter.
system.tol3bus.snoop_filter.hit_single_requests     25985551                       # Number of requests hitting in the snoop filter with a single holder of the requested data.
system.tol3bus.snoop_filter.hit_multi_requests            0                       # Number of requests hitting in the snoop filter with multiple (>1) holders of the requested data.
system.tol3bus.snoop_filter.tot_snoops         220756                       # Total number of snoops made to the snoop filter.
system.tol3bus.snoop_filter.hit_single_snoops       220756                       # Number of snoops hitting in the snoop filter with a single holder of the requested data.
system.tol3bus.snoop_filter.hit_multi_snoops            0                       # Number of snoops hitting in the snoop filter with multiple (>1) holders of the requested data.
system.tol3bus.pwrStateResidencyTicks::UNDEFINED 73717185828861                       # Cumulative time (in ticks) in various power states
system.tol3bus.trans_dist::ReadResp          19570146                       # Transaction distribution
system.tol3bus.trans_dist::WritebackDirty     17724987                       # Transaction distribution
system.tol3bus.trans_dist::CleanEvict        22795829                       # Transaction distribution
system.tol3bus.trans_dist::UpgradeReq              33                       # Transaction distribution
system.tol3bus.trans_dist::UpgradeResp             33                       # Transaction distribution
system.tol3bus.trans_dist::ReadExReq          6419857                       # Transaction distribution
system.tol3bus.trans_dist::ReadExResp         6419857                       # Transaction distribution
system.tol3bus.trans_dist::ReadSharedReq     19570146                       # Transaction distribution
system.tol3bus.pkt_count_system.cpu.l2.mem_side::system.l3.cpu_side     77965590                       # Packet count per connected master and slave (bytes)
system.tol3bus.pkt_size_system.cpu.l2.mem_side::system.l3.cpu_side   2467791872                       # Cumulative packet size per connected master and slave (bytes)
system.tol3bus.snoops                        14535298                       # Total snoops (count)
system.tol3bus.snoopTraffic                 329967488                       # Total snoop traffic (bytes)
system.tol3bus.snoop_fanout::samples         40525334                       # Request fanout histogram
system.tol3bus.snoop_fanout::mean            0.005447                       # Request fanout histogram
system.tol3bus.snoop_fanout::stdev           0.073605                       # Request fanout histogram
system.tol3bus.snoop_fanout::underflows             0      0.00%      0.00% # Request fanout histogram
system.tol3bus.snoop_fanout::0               40304578     99.46%     99.46% # Request fanout histogram
system.tol3bus.snoop_fanout::1                 220756      0.54%    100.00% # Request fanout histogram
system.tol3bus.snoop_fanout::overflows              0      0.00%    100.00% # Request fanout histogram
system.tol3bus.snoop_fanout::min_value              0                       # Request fanout histogram
system.tol3bus.snoop_fanout::max_value              1                       # Request fanout histogram
system.tol3bus.snoop_fanout::total           40525334                       # Request fanout histogram
system.tol3bus.reqLayer0.occupancy        21493418067                       # Layer occupancy (ticks)
system.tol3bus.reqLayer0.utilization              0.6                       # Layer utilization (%)
system.tol3bus.respLayer0.occupancy       17309352987                       # Layer occupancy (ticks)
system.tol3bus.respLayer0.utilization             0.5                       # Layer utilization (%)

---------- End Simulation Statistics   ----------
