
---------- Begin Simulation Statistics ----------
sim_seconds                                  1.241507                       # Number of seconds simulated
sim_ticks                                1241507432018                       # Number of ticks simulated
final_tick                               191292817347018                       # Number of ticks from beginning of simulation (restored from checkpoints and never reset)
sim_freq                                 1000000000000                       # Frequency of simulated ticks
host_inst_rate                                 412595                       # Simulator instruction rate (inst/s)
host_op_rate                                   412595                       # Simulator op (including micro ops) rate (op/s)
host_tick_rate                              426866767                       # Simulator tick rate (ticks/s)
host_mem_usage                                2538892                       # Number of bytes of host memory used
host_seconds                                  2908.42                       # Real time elapsed on the host
sim_insts                                  1200000007                       # Number of instructions simulated
sim_ops                                    1200000007                       # Number of ops (including micro ops) simulated
system.voltage_domain.voltage                       1                       # Voltage in Volts
system.clk_domain.clock                          1000                       # Clock period in ticks
system.mem_ctrls0.pwrStateResidencyTicks::UNDEFINED 191292817347018                       # Cumulative time (in ticks) in various power states
system.mem_ctrls0.bytes_read::cpu.inst            192                       # Number of bytes read from this memory
system.mem_ctrls0.bytes_read::cpu.data            192                       # Number of bytes read from this memory
system.mem_ctrls0.bytes_read::switch_cpus.inst        12992                       # Number of bytes read from this memory
system.mem_ctrls0.bytes_read::switch_cpus.data     19583104                       # Number of bytes read from this memory
system.mem_ctrls0.bytes_read::switch_cpus_1.inst          384                       # Number of bytes read from this memory
system.mem_ctrls0.bytes_read::switch_cpus_1.data      4105664                       # Number of bytes read from this memory
system.mem_ctrls0.bytes_read::total          23702528                       # Number of bytes read from this memory
system.mem_ctrls0.bytes_inst_read::cpu.inst          192                       # Number of instructions bytes read from this memory
system.mem_ctrls0.bytes_inst_read::switch_cpus.inst        12992                       # Number of instructions bytes read from this memory
system.mem_ctrls0.bytes_inst_read::switch_cpus_1.inst          384                       # Number of instructions bytes read from this memory
system.mem_ctrls0.bytes_inst_read::total        13568                       # Number of instructions bytes read from this memory
system.mem_ctrls0.bytes_written::writebacks     15755904                       # Number of bytes written to this memory
system.mem_ctrls0.bytes_written::total       15755904                       # Number of bytes written to this memory
system.mem_ctrls0.num_reads::cpu.inst               3                       # Number of read requests responded to by this memory
system.mem_ctrls0.num_reads::cpu.data               3                       # Number of read requests responded to by this memory
system.mem_ctrls0.num_reads::switch_cpus.inst          203                       # Number of read requests responded to by this memory
system.mem_ctrls0.num_reads::switch_cpus.data       305986                       # Number of read requests responded to by this memory
system.mem_ctrls0.num_reads::switch_cpus_1.inst            6                       # Number of read requests responded to by this memory
system.mem_ctrls0.num_reads::switch_cpus_1.data        64151                       # Number of read requests responded to by this memory
system.mem_ctrls0.num_reads::total             370352                       # Number of read requests responded to by this memory
system.mem_ctrls0.num_writes::writebacks       246186                       # Number of write requests responded to by this memory
system.mem_ctrls0.num_writes::total            246186                       # Number of write requests responded to by this memory
system.mem_ctrls0.bw_read::cpu.inst               155                       # Total read bandwidth from this memory (bytes/s)
system.mem_ctrls0.bw_read::cpu.data               155                       # Total read bandwidth from this memory (bytes/s)
system.mem_ctrls0.bw_read::switch_cpus.inst        10465                       # Total read bandwidth from this memory (bytes/s)
system.mem_ctrls0.bw_read::switch_cpus.data     15773650                       # Total read bandwidth from this memory (bytes/s)
system.mem_ctrls0.bw_read::switch_cpus_1.inst          309                       # Total read bandwidth from this memory (bytes/s)
system.mem_ctrls0.bw_read::switch_cpus_1.data      3306999                       # Total read bandwidth from this memory (bytes/s)
system.mem_ctrls0.bw_read::total             19091733                       # Total read bandwidth from this memory (bytes/s)
system.mem_ctrls0.bw_inst_read::cpu.inst          155                       # Instruction read bandwidth from this memory (bytes/s)
system.mem_ctrls0.bw_inst_read::switch_cpus.inst        10465                       # Instruction read bandwidth from this memory (bytes/s)
system.mem_ctrls0.bw_inst_read::switch_cpus_1.inst          309                       # Instruction read bandwidth from this memory (bytes/s)
system.mem_ctrls0.bw_inst_read::total           10929                       # Instruction read bandwidth from this memory (bytes/s)
system.mem_ctrls0.bw_write::writebacks       12690946                       # Write bandwidth from this memory (bytes/s)
system.mem_ctrls0.bw_write::total            12690946                       # Write bandwidth from this memory (bytes/s)
system.mem_ctrls0.bw_total::writebacks       12690946                       # Total bandwidth to/from this memory (bytes/s)
system.mem_ctrls0.bw_total::cpu.inst              155                       # Total bandwidth to/from this memory (bytes/s)
system.mem_ctrls0.bw_total::cpu.data              155                       # Total bandwidth to/from this memory (bytes/s)
system.mem_ctrls0.bw_total::switch_cpus.inst        10465                       # Total bandwidth to/from this memory (bytes/s)
system.mem_ctrls0.bw_total::switch_cpus.data     15773650                       # Total bandwidth to/from this memory (bytes/s)
system.mem_ctrls0.bw_total::switch_cpus_1.inst          309                       # Total bandwidth to/from this memory (bytes/s)
system.mem_ctrls0.bw_total::switch_cpus_1.data      3306999                       # Total bandwidth to/from this memory (bytes/s)
system.mem_ctrls0.bw_total::total            31782679                       # Total bandwidth to/from this memory (bytes/s)
system.mem_ctrls0.readReqs                     370352                       # Number of read requests accepted
system.mem_ctrls0.writeReqs                    246186                       # Number of write requests accepted
system.mem_ctrls0.readBursts                   370352                       # Number of DRAM read bursts, including those serviced by the write queue
system.mem_ctrls0.writeBursts                  246186                       # Number of DRAM write bursts, including those merged in the write queue
system.mem_ctrls0.bytesReadDRAM              23662272                       # Total number of bytes read from DRAM
system.mem_ctrls0.bytesReadWrQ                  40256                       # Total number of bytes read from write queue
system.mem_ctrls0.bytesWritten               15753920                       # Total number of bytes written to DRAM
system.mem_ctrls0.bytesReadSys               23702528                       # Total read bytes from the system interface side
system.mem_ctrls0.bytesWrittenSys            15755904                       # Total written bytes from the system interface side
system.mem_ctrls0.servicedByWrQ                   629                       # Number of DRAM read bursts serviced by the write queue
system.mem_ctrls0.mergedWrBursts                    0                       # Number of DRAM write bursts merged with an existing one
system.mem_ctrls0.neitherReadNorWriteReqs            0                       # Number of requests that are neither read nor write
system.mem_ctrls0.perBankRdBursts::0            24242                       # Per bank write bursts
system.mem_ctrls0.perBankRdBursts::1            23510                       # Per bank write bursts
system.mem_ctrls0.perBankRdBursts::2            24307                       # Per bank write bursts
system.mem_ctrls0.perBankRdBursts::3            23789                       # Per bank write bursts
system.mem_ctrls0.perBankRdBursts::4            21738                       # Per bank write bursts
system.mem_ctrls0.perBankRdBursts::5            22328                       # Per bank write bursts
system.mem_ctrls0.perBankRdBursts::6            22835                       # Per bank write bursts
system.mem_ctrls0.perBankRdBursts::7            23765                       # Per bank write bursts
system.mem_ctrls0.perBankRdBursts::8            24180                       # Per bank write bursts
system.mem_ctrls0.perBankRdBursts::9            22630                       # Per bank write bursts
system.mem_ctrls0.perBankRdBursts::10           23168                       # Per bank write bursts
system.mem_ctrls0.perBankRdBursts::11           22574                       # Per bank write bursts
system.mem_ctrls0.perBankRdBursts::12           21534                       # Per bank write bursts
system.mem_ctrls0.perBankRdBursts::13           22353                       # Per bank write bursts
system.mem_ctrls0.perBankRdBursts::14           22790                       # Per bank write bursts
system.mem_ctrls0.perBankRdBursts::15           23980                       # Per bank write bursts
system.mem_ctrls0.perBankWrBursts::0            16283                       # Per bank write bursts
system.mem_ctrls0.perBankWrBursts::1            15762                       # Per bank write bursts
system.mem_ctrls0.perBankWrBursts::2            16260                       # Per bank write bursts
system.mem_ctrls0.perBankWrBursts::3            15715                       # Per bank write bursts
system.mem_ctrls0.perBankWrBursts::4            14082                       # Per bank write bursts
system.mem_ctrls0.perBankWrBursts::5            14798                       # Per bank write bursts
system.mem_ctrls0.perBankWrBursts::6            15280                       # Per bank write bursts
system.mem_ctrls0.perBankWrBursts::7            15960                       # Per bank write bursts
system.mem_ctrls0.perBankWrBursts::8            16127                       # Per bank write bursts
system.mem_ctrls0.perBankWrBursts::9            15061                       # Per bank write bursts
system.mem_ctrls0.perBankWrBursts::10           15265                       # Per bank write bursts
system.mem_ctrls0.perBankWrBursts::11           14953                       # Per bank write bursts
system.mem_ctrls0.perBankWrBursts::12           14496                       # Per bank write bursts
system.mem_ctrls0.perBankWrBursts::13           14750                       # Per bank write bursts
system.mem_ctrls0.perBankWrBursts::14           15149                       # Per bank write bursts
system.mem_ctrls0.perBankWrBursts::15           16214                       # Per bank write bursts
system.mem_ctrls0.numRdRetry                        0                       # Number of times read queue was full causing retry
system.mem_ctrls0.numWrRetry                        0                       # Number of times write queue was full causing retry
system.mem_ctrls0.totGap                 1241246435076                       # Total gap between requests
system.mem_ctrls0.readPktSize::0                    0                       # Read request sizes (log2)
system.mem_ctrls0.readPktSize::1                    0                       # Read request sizes (log2)
system.mem_ctrls0.readPktSize::2                    0                       # Read request sizes (log2)
system.mem_ctrls0.readPktSize::3                    0                       # Read request sizes (log2)
system.mem_ctrls0.readPktSize::4                    0                       # Read request sizes (log2)
system.mem_ctrls0.readPktSize::5                    0                       # Read request sizes (log2)
system.mem_ctrls0.readPktSize::6               370352                       # Read request sizes (log2)
system.mem_ctrls0.writePktSize::0                   0                       # Write request sizes (log2)
system.mem_ctrls0.writePktSize::1                   0                       # Write request sizes (log2)
system.mem_ctrls0.writePktSize::2                   0                       # Write request sizes (log2)
system.mem_ctrls0.writePktSize::3                   0                       # Write request sizes (log2)
system.mem_ctrls0.writePktSize::4                   0                       # Write request sizes (log2)
system.mem_ctrls0.writePktSize::5                   0                       # Write request sizes (log2)
system.mem_ctrls0.writePktSize::6              246186                       # Write request sizes (log2)
system.mem_ctrls0.rdQLenPdf::0                 363424                       # What read queue length does an incoming req see
system.mem_ctrls0.rdQLenPdf::1                   6162                       # What read queue length does an incoming req see
system.mem_ctrls0.rdQLenPdf::2                    124                       # What read queue length does an incoming req see
system.mem_ctrls0.rdQLenPdf::3                     12                       # What read queue length does an incoming req see
system.mem_ctrls0.rdQLenPdf::4                      1                       # What read queue length does an incoming req see
system.mem_ctrls0.rdQLenPdf::5                      0                       # What read queue length does an incoming req see
system.mem_ctrls0.rdQLenPdf::6                      0                       # What read queue length does an incoming req see
system.mem_ctrls0.rdQLenPdf::7                      0                       # What read queue length does an incoming req see
system.mem_ctrls0.rdQLenPdf::8                      0                       # What read queue length does an incoming req see
system.mem_ctrls0.rdQLenPdf::9                      0                       # What read queue length does an incoming req see
system.mem_ctrls0.rdQLenPdf::10                     0                       # What read queue length does an incoming req see
system.mem_ctrls0.rdQLenPdf::11                     0                       # What read queue length does an incoming req see
system.mem_ctrls0.rdQLenPdf::12                     0                       # What read queue length does an incoming req see
system.mem_ctrls0.rdQLenPdf::13                     0                       # What read queue length does an incoming req see
system.mem_ctrls0.rdQLenPdf::14                     0                       # What read queue length does an incoming req see
system.mem_ctrls0.rdQLenPdf::15                     0                       # What read queue length does an incoming req see
system.mem_ctrls0.rdQLenPdf::16                     0                       # What read queue length does an incoming req see
system.mem_ctrls0.rdQLenPdf::17                     0                       # What read queue length does an incoming req see
system.mem_ctrls0.rdQLenPdf::18                     0                       # What read queue length does an incoming req see
system.mem_ctrls0.rdQLenPdf::19                     0                       # What read queue length does an incoming req see
system.mem_ctrls0.rdQLenPdf::20                     0                       # What read queue length does an incoming req see
system.mem_ctrls0.rdQLenPdf::21                     0                       # What read queue length does an incoming req see
system.mem_ctrls0.rdQLenPdf::22                     0                       # What read queue length does an incoming req see
system.mem_ctrls0.rdQLenPdf::23                     0                       # What read queue length does an incoming req see
system.mem_ctrls0.rdQLenPdf::24                     0                       # What read queue length does an incoming req see
system.mem_ctrls0.rdQLenPdf::25                     0                       # What read queue length does an incoming req see
system.mem_ctrls0.rdQLenPdf::26                     0                       # What read queue length does an incoming req see
system.mem_ctrls0.rdQLenPdf::27                     0                       # What read queue length does an incoming req see
system.mem_ctrls0.rdQLenPdf::28                     0                       # What read queue length does an incoming req see
system.mem_ctrls0.rdQLenPdf::29                     0                       # What read queue length does an incoming req see
system.mem_ctrls0.rdQLenPdf::30                     0                       # What read queue length does an incoming req see
system.mem_ctrls0.rdQLenPdf::31                     0                       # What read queue length does an incoming req see
system.mem_ctrls0.wrQLenPdf::0                      2                       # What write queue length does an incoming req see
system.mem_ctrls0.wrQLenPdf::1                      2                       # What write queue length does an incoming req see
system.mem_ctrls0.wrQLenPdf::2                      2                       # What write queue length does an incoming req see
system.mem_ctrls0.wrQLenPdf::3                      2                       # What write queue length does an incoming req see
system.mem_ctrls0.wrQLenPdf::4                      2                       # What write queue length does an incoming req see
system.mem_ctrls0.wrQLenPdf::5                      2                       # What write queue length does an incoming req see
system.mem_ctrls0.wrQLenPdf::6                      2                       # What write queue length does an incoming req see
system.mem_ctrls0.wrQLenPdf::7                      2                       # What write queue length does an incoming req see
system.mem_ctrls0.wrQLenPdf::8                      2                       # What write queue length does an incoming req see
system.mem_ctrls0.wrQLenPdf::9                      2                       # What write queue length does an incoming req see
system.mem_ctrls0.wrQLenPdf::10                     2                       # What write queue length does an incoming req see
system.mem_ctrls0.wrQLenPdf::11                     2                       # What write queue length does an incoming req see
system.mem_ctrls0.wrQLenPdf::12                     2                       # What write queue length does an incoming req see
system.mem_ctrls0.wrQLenPdf::13                     2                       # What write queue length does an incoming req see
system.mem_ctrls0.wrQLenPdf::14                     2                       # What write queue length does an incoming req see
system.mem_ctrls0.wrQLenPdf::15                 10602                       # What write queue length does an incoming req see
system.mem_ctrls0.wrQLenPdf::16                 10854                       # What write queue length does an incoming req see
system.mem_ctrls0.wrQLenPdf::17                 13599                       # What write queue length does an incoming req see
system.mem_ctrls0.wrQLenPdf::18                 13993                       # What write queue length does an incoming req see
system.mem_ctrls0.wrQLenPdf::19                 14072                       # What write queue length does an incoming req see
system.mem_ctrls0.wrQLenPdf::20                 14061                       # What write queue length does an incoming req see
system.mem_ctrls0.wrQLenPdf::21                 14092                       # What write queue length does an incoming req see
system.mem_ctrls0.wrQLenPdf::22                 14084                       # What write queue length does an incoming req see
system.mem_ctrls0.wrQLenPdf::23                 14107                       # What write queue length does an incoming req see
system.mem_ctrls0.wrQLenPdf::24                 14116                       # What write queue length does an incoming req see
system.mem_ctrls0.wrQLenPdf::25                 14109                       # What write queue length does an incoming req see
system.mem_ctrls0.wrQLenPdf::26                 14183                       # What write queue length does an incoming req see
system.mem_ctrls0.wrQLenPdf::27                 14093                       # What write queue length does an incoming req see
system.mem_ctrls0.wrQLenPdf::28                 14040                       # What write queue length does an incoming req see
system.mem_ctrls0.wrQLenPdf::29                 14066                       # What write queue length does an incoming req see
system.mem_ctrls0.wrQLenPdf::30                 14049                       # What write queue length does an incoming req see
system.mem_ctrls0.wrQLenPdf::31                 13995                       # What write queue length does an incoming req see
system.mem_ctrls0.wrQLenPdf::32                 13976                       # What write queue length does an incoming req see
system.mem_ctrls0.wrQLenPdf::33                    62                       # What write queue length does an incoming req see
system.mem_ctrls0.wrQLenPdf::34                     3                       # What write queue length does an incoming req see
system.mem_ctrls0.wrQLenPdf::35                     0                       # What write queue length does an incoming req see
system.mem_ctrls0.wrQLenPdf::36                     0                       # What write queue length does an incoming req see
system.mem_ctrls0.wrQLenPdf::37                     0                       # What write queue length does an incoming req see
system.mem_ctrls0.wrQLenPdf::38                     0                       # What write queue length does an incoming req see
system.mem_ctrls0.wrQLenPdf::39                     0                       # What write queue length does an incoming req see
system.mem_ctrls0.wrQLenPdf::40                     0                       # What write queue length does an incoming req see
system.mem_ctrls0.wrQLenPdf::41                     0                       # What write queue length does an incoming req see
system.mem_ctrls0.wrQLenPdf::42                     0                       # What write queue length does an incoming req see
system.mem_ctrls0.wrQLenPdf::43                     0                       # What write queue length does an incoming req see
system.mem_ctrls0.wrQLenPdf::44                     0                       # What write queue length does an incoming req see
system.mem_ctrls0.wrQLenPdf::45                     0                       # What write queue length does an incoming req see
system.mem_ctrls0.wrQLenPdf::46                     0                       # What write queue length does an incoming req see
system.mem_ctrls0.wrQLenPdf::47                     0                       # What write queue length does an incoming req see
system.mem_ctrls0.wrQLenPdf::48                     0                       # What write queue length does an incoming req see
system.mem_ctrls0.wrQLenPdf::49                     0                       # What write queue length does an incoming req see
system.mem_ctrls0.wrQLenPdf::50                     0                       # What write queue length does an incoming req see
system.mem_ctrls0.wrQLenPdf::51                     0                       # What write queue length does an incoming req see
system.mem_ctrls0.wrQLenPdf::52                     0                       # What write queue length does an incoming req see
system.mem_ctrls0.wrQLenPdf::53                     0                       # What write queue length does an incoming req see
system.mem_ctrls0.wrQLenPdf::54                     0                       # What write queue length does an incoming req see
system.mem_ctrls0.wrQLenPdf::55                     0                       # What write queue length does an incoming req see
system.mem_ctrls0.wrQLenPdf::56                     0                       # What write queue length does an incoming req see
system.mem_ctrls0.wrQLenPdf::57                     0                       # What write queue length does an incoming req see
system.mem_ctrls0.wrQLenPdf::58                     0                       # What write queue length does an incoming req see
system.mem_ctrls0.wrQLenPdf::59                     0                       # What write queue length does an incoming req see
system.mem_ctrls0.wrQLenPdf::60                     0                       # What write queue length does an incoming req see
system.mem_ctrls0.wrQLenPdf::61                     0                       # What write queue length does an incoming req see
system.mem_ctrls0.wrQLenPdf::62                     0                       # What write queue length does an incoming req see
system.mem_ctrls0.wrQLenPdf::63                     0                       # What write queue length does an incoming req see
system.mem_ctrls0.bytesPerActivate::samples       382406                       # Bytes accessed per row activation
system.mem_ctrls0.bytesPerActivate::mean   103.074199                       # Bytes accessed per row activation
system.mem_ctrls0.bytesPerActivate::gmean    83.471915                       # Bytes accessed per row activation
system.mem_ctrls0.bytesPerActivate::stdev   109.026730                       # Bytes accessed per row activation
system.mem_ctrls0.bytesPerActivate::0-127       288050     75.33%     75.33% # Bytes accessed per row activation
system.mem_ctrls0.bytesPerActivate::128-255        66772     17.46%     92.79% # Bytes accessed per row activation
system.mem_ctrls0.bytesPerActivate::256-383        15706      4.11%     96.89% # Bytes accessed per row activation
system.mem_ctrls0.bytesPerActivate::384-511         5901      1.54%     98.44% # Bytes accessed per row activation
system.mem_ctrls0.bytesPerActivate::512-639         1945      0.51%     98.95% # Bytes accessed per row activation
system.mem_ctrls0.bytesPerActivate::640-767          961      0.25%     99.20% # Bytes accessed per row activation
system.mem_ctrls0.bytesPerActivate::768-895          731      0.19%     99.39% # Bytes accessed per row activation
system.mem_ctrls0.bytesPerActivate::896-1023          650      0.17%     99.56% # Bytes accessed per row activation
system.mem_ctrls0.bytesPerActivate::1024-1151         1690      0.44%    100.00% # Bytes accessed per row activation
system.mem_ctrls0.bytesPerActivate::total       382406                       # Bytes accessed per row activation
system.mem_ctrls0.rdPerTurnAround::samples        13971                       # Reads before turning the bus around for writes
system.mem_ctrls0.rdPerTurnAround::mean     26.458163                       # Reads before turning the bus around for writes
system.mem_ctrls0.rdPerTurnAround::stdev   242.499311                       # Reads before turning the bus around for writes
system.mem_ctrls0.rdPerTurnAround::0-1023        13970     99.99%     99.99% # Reads before turning the bus around for writes
system.mem_ctrls0.rdPerTurnAround::27648-28671            1      0.01%    100.00% # Reads before turning the bus around for writes
system.mem_ctrls0.rdPerTurnAround::total        13971                       # Reads before turning the bus around for writes
system.mem_ctrls0.wrPerTurnAround::samples        13971                       # Writes before turning the bus around for reads
system.mem_ctrls0.wrPerTurnAround::mean     17.618996                       # Writes before turning the bus around for reads
system.mem_ctrls0.wrPerTurnAround::gmean    17.593361                       # Writes before turning the bus around for reads
system.mem_ctrls0.wrPerTurnAround::stdev     0.937599                       # Writes before turning the bus around for reads
system.mem_ctrls0.wrPerTurnAround::16            3147     22.53%     22.53% # Writes before turning the bus around for reads
system.mem_ctrls0.wrPerTurnAround::17             183      1.31%     23.84% # Writes before turning the bus around for reads
system.mem_ctrls0.wrPerTurnAround::18            9621     68.86%     92.70% # Writes before turning the bus around for reads
system.mem_ctrls0.wrPerTurnAround::19             922      6.60%     99.30% # Writes before turning the bus around for reads
system.mem_ctrls0.wrPerTurnAround::20              77      0.55%     99.85% # Writes before turning the bus around for reads
system.mem_ctrls0.wrPerTurnAround::21              11      0.08%     99.93% # Writes before turning the bus around for reads
system.mem_ctrls0.wrPerTurnAround::22               7      0.05%     99.98% # Writes before turning the bus around for reads
system.mem_ctrls0.wrPerTurnAround::23               1      0.01%     99.99% # Writes before turning the bus around for reads
system.mem_ctrls0.wrPerTurnAround::24               2      0.01%    100.00% # Writes before turning the bus around for reads
system.mem_ctrls0.wrPerTurnAround::total        13971                       # Writes before turning the bus around for reads
system.mem_ctrls0.totQLat                 17152181782                       # Total ticks spent queuing
system.mem_ctrls0.totMemAccLat            24084488032                       # Total ticks spent from burst creation until serviced by the DRAM
system.mem_ctrls0.totBusLat                1848615000                       # Total ticks spent in databus transfers
system.mem_ctrls0.avgQLat                    46391.98                       # Average queueing delay per DRAM burst
system.mem_ctrls0.avgBusLat                   5000.00                       # Average bus latency per DRAM burst
system.mem_ctrls0.avgMemAccLat               65141.98                       # Average memory access latency per DRAM burst
system.mem_ctrls0.avgRdBW                       19.06                       # Average DRAM read bandwidth in MiByte/s
system.mem_ctrls0.avgWrBW                       12.69                       # Average achieved write bandwidth in MiByte/s
system.mem_ctrls0.avgRdBWSys                    19.09                       # Average system read bandwidth in MiByte/s
system.mem_ctrls0.avgWrBWSys                    12.69                       # Average system write bandwidth in MiByte/s
system.mem_ctrls0.peakBW                     12800.00                       # Theoretical peak bandwidth in MiByte/s
system.mem_ctrls0.busUtil                        0.25                       # Data bus utilization in percentage
system.mem_ctrls0.busUtilRead                    0.15                       # Data bus utilization in percentage for reads
system.mem_ctrls0.busUtilWrite                   0.10                       # Data bus utilization in percentage for writes
system.mem_ctrls0.avgRdQLen                      1.00                       # Average read queue length when enqueuing
system.mem_ctrls0.avgWrQLen                     22.78                       # Average write queue length when enqueuing
system.mem_ctrls0.readRowHits                  181046                       # Number of row buffer hits during reads
system.mem_ctrls0.writeRowHits                  52426                       # Number of row buffer hits during writes
system.mem_ctrls0.readRowHitRate                48.97                       # Row buffer hit rate for reads
system.mem_ctrls0.writeRowHitRate               21.30                       # Row buffer hit rate for writes
system.mem_ctrls0.avgGap                   2013252.12                       # Average gap between requests
system.mem_ctrls0.pageHitRate                   37.91                       # Row buffer hit rate, read and write combined
system.mem_ctrls0_0.actEnergy              1375449600                       # Energy for activate commands per rank (pJ)
system.mem_ctrls0_0.preEnergy               731068800                       # Energy for precharge commands per rank (pJ)
system.mem_ctrls0_0.readEnergy             1331709960                       # Energy for read commands per rank (pJ)
system.mem_ctrls0_0.writeEnergy             648010800                       # Energy for write commands per rank (pJ)
system.mem_ctrls0_0.refreshEnergy        41760485520.000008                       # Energy for refresh commands per rank (pJ)
system.mem_ctrls0_0.actBackEnergy         23856281820                       # Energy for active background per rank (pJ)
system.mem_ctrls0_0.preBackEnergy          1980569760                       # Energy for precharge background per rank (pJ)
system.mem_ctrls0_0.actPowerDownEnergy   111064604310                       # Energy for active power-down per rank (pJ)
system.mem_ctrls0_0.prePowerDownEnergy    54477913920                       # Energy for precharge power-down per rank (pJ)
system.mem_ctrls0_0.selfRefreshEnergy    198227177280                       # Energy for self refresh per rank (pJ)
system.mem_ctrls0_0.totalEnergy          435468035490                       # Total energy per rank (pJ)
system.mem_ctrls0_0.averagePower           350.757492                       # Core power per rank (mW)
system.mem_ctrls0_0.totalIdleTime        1183738733609                       # Total Idle time Per DRAM Rank
system.mem_ctrls0_0.memoryStateTime::IDLE   3429112233                       # Time in different power states
system.mem_ctrls0_0.memoryStateTime::REF  17737906000                       # Time in different power states
system.mem_ctrls0_0.memoryStateTime::SREF 798568200518                       # Time in different power states
system.mem_ctrls0_0.memoryStateTime::PRE_PDN 141870130802                       # Time in different power states
system.mem_ctrls0_0.memoryStateTime::ACT  36339132944                       # Time in different power states
system.mem_ctrls0_0.memoryStateTime::ACT_PDN 243562949521                       # Time in different power states
system.mem_ctrls0_1.actEnergy              1354929240                       # Energy for activate commands per rank (pJ)
system.mem_ctrls0_1.preEnergy               720161970                       # Energy for precharge commands per rank (pJ)
system.mem_ctrls0_1.readEnergy             1308112260                       # Energy for read commands per rank (pJ)
system.mem_ctrls0_1.writeEnergy             636918300                       # Energy for write commands per rank (pJ)
system.mem_ctrls0_1.refreshEnergy        42598854480.000008                       # Energy for refresh commands per rank (pJ)
system.mem_ctrls0_1.actBackEnergy         23904656010                       # Energy for active background per rank (pJ)
system.mem_ctrls0_1.preBackEnergy          2024117760                       # Energy for precharge background per rank (pJ)
system.mem_ctrls0_1.actPowerDownEnergy   113122878870                       # Energy for active power-down per rank (pJ)
system.mem_ctrls0_1.prePowerDownEnergy    56032523520                       # Energy for precharge power-down per rank (pJ)
system.mem_ctrls0_1.selfRefreshEnergy    196260188055                       # Energy for self refresh per rank (pJ)
system.mem_ctrls0_1.totalEnergy          437980047435                       # Total energy per rank (pJ)
system.mem_ctrls0_1.averagePower           352.780849                       # Core power per rank (mW)
system.mem_ctrls0_1.totalIdleTime        1183532053619                       # Total Idle time Per DRAM Rank
system.mem_ctrls0_1.memoryStateTime::IDLE   3518715580                       # Time in different power states
system.mem_ctrls0_1.memoryStateTime::REF  18094088000                       # Time in different power states
system.mem_ctrls0_1.memoryStateTime::SREF 789782068768                       # Time in different power states
system.mem_ctrls0_1.memoryStateTime::PRE_PDN 145918723177                       # Time in different power states
system.mem_ctrls0_1.memoryStateTime::ACT  36117450945                       # Time in different power states
system.mem_ctrls0_1.memoryStateTime::ACT_PDN 248076385548                       # Time in different power states
system.mem_ctrls1.pwrStateResidencyTicks::UNDEFINED 191292817347018                       # Cumulative time (in ticks) in various power states
system.mem_ctrls1.bytes_read::cpu.inst            128                       # Number of bytes read from this memory
system.mem_ctrls1.bytes_read::cpu.data             64                       # Number of bytes read from this memory
system.mem_ctrls1.bytes_read::switch_cpus.inst        14144                       # Number of bytes read from this memory
system.mem_ctrls1.bytes_read::switch_cpus.data     19595904                       # Number of bytes read from this memory
system.mem_ctrls1.bytes_read::switch_cpus_1.inst          768                       # Number of bytes read from this memory
system.mem_ctrls1.bytes_read::switch_cpus_1.data      4126272                       # Number of bytes read from this memory
system.mem_ctrls1.bytes_read::total          23737280                       # Number of bytes read from this memory
system.mem_ctrls1.bytes_inst_read::cpu.inst          128                       # Number of instructions bytes read from this memory
system.mem_ctrls1.bytes_inst_read::switch_cpus.inst        14144                       # Number of instructions bytes read from this memory
system.mem_ctrls1.bytes_inst_read::switch_cpus_1.inst          768                       # Number of instructions bytes read from this memory
system.mem_ctrls1.bytes_inst_read::total        15040                       # Number of instructions bytes read from this memory
system.mem_ctrls1.bytes_written::writebacks     15783552                       # Number of bytes written to this memory
system.mem_ctrls1.bytes_written::total       15783552                       # Number of bytes written to this memory
system.mem_ctrls1.num_reads::cpu.inst               2                       # Number of read requests responded to by this memory
system.mem_ctrls1.num_reads::cpu.data               1                       # Number of read requests responded to by this memory
system.mem_ctrls1.num_reads::switch_cpus.inst          221                       # Number of read requests responded to by this memory
system.mem_ctrls1.num_reads::switch_cpus.data       306186                       # Number of read requests responded to by this memory
system.mem_ctrls1.num_reads::switch_cpus_1.inst           12                       # Number of read requests responded to by this memory
system.mem_ctrls1.num_reads::switch_cpus_1.data        64473                       # Number of read requests responded to by this memory
system.mem_ctrls1.num_reads::total             370895                       # Number of read requests responded to by this memory
system.mem_ctrls1.num_writes::writebacks       246618                       # Number of write requests responded to by this memory
system.mem_ctrls1.num_writes::total            246618                       # Number of write requests responded to by this memory
system.mem_ctrls1.bw_read::cpu.inst               103                       # Total read bandwidth from this memory (bytes/s)
system.mem_ctrls1.bw_read::cpu.data                52                       # Total read bandwidth from this memory (bytes/s)
system.mem_ctrls1.bw_read::switch_cpus.inst        11393                       # Total read bandwidth from this memory (bytes/s)
system.mem_ctrls1.bw_read::switch_cpus.data     15783960                       # Total read bandwidth from this memory (bytes/s)
system.mem_ctrls1.bw_read::switch_cpus_1.inst          619                       # Total read bandwidth from this memory (bytes/s)
system.mem_ctrls1.bw_read::switch_cpus_1.data      3323598                       # Total read bandwidth from this memory (bytes/s)
system.mem_ctrls1.bw_read::total             19119724                       # Total read bandwidth from this memory (bytes/s)
system.mem_ctrls1.bw_inst_read::cpu.inst          103                       # Instruction read bandwidth from this memory (bytes/s)
system.mem_ctrls1.bw_inst_read::switch_cpus.inst        11393                       # Instruction read bandwidth from this memory (bytes/s)
system.mem_ctrls1.bw_inst_read::switch_cpus_1.inst          619                       # Instruction read bandwidth from this memory (bytes/s)
system.mem_ctrls1.bw_inst_read::total           12114                       # Instruction read bandwidth from this memory (bytes/s)
system.mem_ctrls1.bw_write::writebacks       12713216                       # Write bandwidth from this memory (bytes/s)
system.mem_ctrls1.bw_write::total            12713216                       # Write bandwidth from this memory (bytes/s)
system.mem_ctrls1.bw_total::writebacks       12713216                       # Total bandwidth to/from this memory (bytes/s)
system.mem_ctrls1.bw_total::cpu.inst              103                       # Total bandwidth to/from this memory (bytes/s)
system.mem_ctrls1.bw_total::cpu.data               52                       # Total bandwidth to/from this memory (bytes/s)
system.mem_ctrls1.bw_total::switch_cpus.inst        11393                       # Total bandwidth to/from this memory (bytes/s)
system.mem_ctrls1.bw_total::switch_cpus.data     15783960                       # Total bandwidth to/from this memory (bytes/s)
system.mem_ctrls1.bw_total::switch_cpus_1.inst          619                       # Total bandwidth to/from this memory (bytes/s)
system.mem_ctrls1.bw_total::switch_cpus_1.data      3323598                       # Total bandwidth to/from this memory (bytes/s)
system.mem_ctrls1.bw_total::total            31832940                       # Total bandwidth to/from this memory (bytes/s)
system.mem_ctrls1.readReqs                     370895                       # Number of read requests accepted
system.mem_ctrls1.writeReqs                    246618                       # Number of write requests accepted
system.mem_ctrls1.readBursts                   370895                       # Number of DRAM read bursts, including those serviced by the write queue
system.mem_ctrls1.writeBursts                  246618                       # Number of DRAM write bursts, including those merged in the write queue
system.mem_ctrls1.bytesReadDRAM              23698240                       # Total number of bytes read from DRAM
system.mem_ctrls1.bytesReadWrQ                  39040                       # Total number of bytes read from write queue
system.mem_ctrls1.bytesWritten               15781504                       # Total number of bytes written to DRAM
system.mem_ctrls1.bytesReadSys               23737280                       # Total read bytes from the system interface side
system.mem_ctrls1.bytesWrittenSys            15783552                       # Total written bytes from the system interface side
system.mem_ctrls1.servicedByWrQ                   610                       # Number of DRAM read bursts serviced by the write queue
system.mem_ctrls1.mergedWrBursts                    0                       # Number of DRAM write bursts merged with an existing one
system.mem_ctrls1.neitherReadNorWriteReqs            0                       # Number of requests that are neither read nor write
system.mem_ctrls1.perBankRdBursts::0            24133                       # Per bank write bursts
system.mem_ctrls1.perBankRdBursts::1            23599                       # Per bank write bursts
system.mem_ctrls1.perBankRdBursts::2            24418                       # Per bank write bursts
system.mem_ctrls1.perBankRdBursts::3            23832                       # Per bank write bursts
system.mem_ctrls1.perBankRdBursts::4            21726                       # Per bank write bursts
system.mem_ctrls1.perBankRdBursts::5            22649                       # Per bank write bursts
system.mem_ctrls1.perBankRdBursts::6            22866                       # Per bank write bursts
system.mem_ctrls1.perBankRdBursts::7            23680                       # Per bank write bursts
system.mem_ctrls1.perBankRdBursts::8            24225                       # Per bank write bursts
system.mem_ctrls1.perBankRdBursts::9            22516                       # Per bank write bursts
system.mem_ctrls1.perBankRdBursts::10           23281                       # Per bank write bursts
system.mem_ctrls1.perBankRdBursts::11           22709                       # Per bank write bursts
system.mem_ctrls1.perBankRdBursts::12           21382                       # Per bank write bursts
system.mem_ctrls1.perBankRdBursts::13           22352                       # Per bank write bursts
system.mem_ctrls1.perBankRdBursts::14           22681                       # Per bank write bursts
system.mem_ctrls1.perBankRdBursts::15           24236                       # Per bank write bursts
system.mem_ctrls1.perBankWrBursts::0            16172                       # Per bank write bursts
system.mem_ctrls1.perBankWrBursts::1            15801                       # Per bank write bursts
system.mem_ctrls1.perBankWrBursts::2            16312                       # Per bank write bursts
system.mem_ctrls1.perBankWrBursts::3            15741                       # Per bank write bursts
system.mem_ctrls1.perBankWrBursts::4            14060                       # Per bank write bursts
system.mem_ctrls1.perBankWrBursts::5            14973                       # Per bank write bursts
system.mem_ctrls1.perBankWrBursts::6            15302                       # Per bank write bursts
system.mem_ctrls1.perBankWrBursts::7            15948                       # Per bank write bursts
system.mem_ctrls1.perBankWrBursts::8            16105                       # Per bank write bursts
system.mem_ctrls1.perBankWrBursts::9            14993                       # Per bank write bursts
system.mem_ctrls1.perBankWrBursts::10           15457                       # Per bank write bursts
system.mem_ctrls1.perBankWrBursts::11           15103                       # Per bank write bursts
system.mem_ctrls1.perBankWrBursts::12           14319                       # Per bank write bursts
system.mem_ctrls1.perBankWrBursts::13           14733                       # Per bank write bursts
system.mem_ctrls1.perBankWrBursts::14           15190                       # Per bank write bursts
system.mem_ctrls1.perBankWrBursts::15           16377                       # Per bank write bursts
system.mem_ctrls1.numRdRetry                        0                       # Number of times read queue was full causing retry
system.mem_ctrls1.numWrRetry                        0                       # Number of times write queue was full causing retry
system.mem_ctrls1.totGap                 1241244749097                       # Total gap between requests
system.mem_ctrls1.readPktSize::0                    0                       # Read request sizes (log2)
system.mem_ctrls1.readPktSize::1                    0                       # Read request sizes (log2)
system.mem_ctrls1.readPktSize::2                    0                       # Read request sizes (log2)
system.mem_ctrls1.readPktSize::3                    0                       # Read request sizes (log2)
system.mem_ctrls1.readPktSize::4                    0                       # Read request sizes (log2)
system.mem_ctrls1.readPktSize::5                    0                       # Read request sizes (log2)
system.mem_ctrls1.readPktSize::6               370895                       # Read request sizes (log2)
system.mem_ctrls1.writePktSize::0                   0                       # Write request sizes (log2)
system.mem_ctrls1.writePktSize::1                   0                       # Write request sizes (log2)
system.mem_ctrls1.writePktSize::2                   0                       # Write request sizes (log2)
system.mem_ctrls1.writePktSize::3                   0                       # Write request sizes (log2)
system.mem_ctrls1.writePktSize::4                   0                       # Write request sizes (log2)
system.mem_ctrls1.writePktSize::5                   0                       # Write request sizes (log2)
system.mem_ctrls1.writePktSize::6              246618                       # Write request sizes (log2)
system.mem_ctrls1.rdQLenPdf::0                 363814                       # What read queue length does an incoming req see
system.mem_ctrls1.rdQLenPdf::1                   6305                       # What read queue length does an incoming req see
system.mem_ctrls1.rdQLenPdf::2                    146                       # What read queue length does an incoming req see
system.mem_ctrls1.rdQLenPdf::3                     20                       # What read queue length does an incoming req see
system.mem_ctrls1.rdQLenPdf::4                      0                       # What read queue length does an incoming req see
system.mem_ctrls1.rdQLenPdf::5                      0                       # What read queue length does an incoming req see
system.mem_ctrls1.rdQLenPdf::6                      0                       # What read queue length does an incoming req see
system.mem_ctrls1.rdQLenPdf::7                      0                       # What read queue length does an incoming req see
system.mem_ctrls1.rdQLenPdf::8                      0                       # What read queue length does an incoming req see
system.mem_ctrls1.rdQLenPdf::9                      0                       # What read queue length does an incoming req see
system.mem_ctrls1.rdQLenPdf::10                     0                       # What read queue length does an incoming req see
system.mem_ctrls1.rdQLenPdf::11                     0                       # What read queue length does an incoming req see
system.mem_ctrls1.rdQLenPdf::12                     0                       # What read queue length does an incoming req see
system.mem_ctrls1.rdQLenPdf::13                     0                       # What read queue length does an incoming req see
system.mem_ctrls1.rdQLenPdf::14                     0                       # What read queue length does an incoming req see
system.mem_ctrls1.rdQLenPdf::15                     0                       # What read queue length does an incoming req see
system.mem_ctrls1.rdQLenPdf::16                     0                       # What read queue length does an incoming req see
system.mem_ctrls1.rdQLenPdf::17                     0                       # What read queue length does an incoming req see
system.mem_ctrls1.rdQLenPdf::18                     0                       # What read queue length does an incoming req see
system.mem_ctrls1.rdQLenPdf::19                     0                       # What read queue length does an incoming req see
system.mem_ctrls1.rdQLenPdf::20                     0                       # What read queue length does an incoming req see
system.mem_ctrls1.rdQLenPdf::21                     0                       # What read queue length does an incoming req see
system.mem_ctrls1.rdQLenPdf::22                     0                       # What read queue length does an incoming req see
system.mem_ctrls1.rdQLenPdf::23                     0                       # What read queue length does an incoming req see
system.mem_ctrls1.rdQLenPdf::24                     0                       # What read queue length does an incoming req see
system.mem_ctrls1.rdQLenPdf::25                     0                       # What read queue length does an incoming req see
system.mem_ctrls1.rdQLenPdf::26                     0                       # What read queue length does an incoming req see
system.mem_ctrls1.rdQLenPdf::27                     0                       # What read queue length does an incoming req see
system.mem_ctrls1.rdQLenPdf::28                     0                       # What read queue length does an incoming req see
system.mem_ctrls1.rdQLenPdf::29                     0                       # What read queue length does an incoming req see
system.mem_ctrls1.rdQLenPdf::30                     0                       # What read queue length does an incoming req see
system.mem_ctrls1.rdQLenPdf::31                     0                       # What read queue length does an incoming req see
system.mem_ctrls1.wrQLenPdf::0                      2                       # What write queue length does an incoming req see
system.mem_ctrls1.wrQLenPdf::1                      2                       # What write queue length does an incoming req see
system.mem_ctrls1.wrQLenPdf::2                      2                       # What write queue length does an incoming req see
system.mem_ctrls1.wrQLenPdf::3                      2                       # What write queue length does an incoming req see
system.mem_ctrls1.wrQLenPdf::4                      2                       # What write queue length does an incoming req see
system.mem_ctrls1.wrQLenPdf::5                      2                       # What write queue length does an incoming req see
system.mem_ctrls1.wrQLenPdf::6                      2                       # What write queue length does an incoming req see
system.mem_ctrls1.wrQLenPdf::7                      2                       # What write queue length does an incoming req see
system.mem_ctrls1.wrQLenPdf::8                      2                       # What write queue length does an incoming req see
system.mem_ctrls1.wrQLenPdf::9                      2                       # What write queue length does an incoming req see
system.mem_ctrls1.wrQLenPdf::10                     2                       # What write queue length does an incoming req see
system.mem_ctrls1.wrQLenPdf::11                     2                       # What write queue length does an incoming req see
system.mem_ctrls1.wrQLenPdf::12                     2                       # What write queue length does an incoming req see
system.mem_ctrls1.wrQLenPdf::13                     2                       # What write queue length does an incoming req see
system.mem_ctrls1.wrQLenPdf::14                     2                       # What write queue length does an incoming req see
system.mem_ctrls1.wrQLenPdf::15                 10678                       # What write queue length does an incoming req see
system.mem_ctrls1.wrQLenPdf::16                 10963                       # What write queue length does an incoming req see
system.mem_ctrls1.wrQLenPdf::17                 13588                       # What write queue length does an incoming req see
system.mem_ctrls1.wrQLenPdf::18                 14037                       # What write queue length does an incoming req see
system.mem_ctrls1.wrQLenPdf::19                 14080                       # What write queue length does an incoming req see
system.mem_ctrls1.wrQLenPdf::20                 14095                       # What write queue length does an incoming req see
system.mem_ctrls1.wrQLenPdf::21                 14101                       # What write queue length does an incoming req see
system.mem_ctrls1.wrQLenPdf::22                 14122                       # What write queue length does an incoming req see
system.mem_ctrls1.wrQLenPdf::23                 14122                       # What write queue length does an incoming req see
system.mem_ctrls1.wrQLenPdf::24                 14111                       # What write queue length does an incoming req see
system.mem_ctrls1.wrQLenPdf::25                 14121                       # What write queue length does an incoming req see
system.mem_ctrls1.wrQLenPdf::26                 14204                       # What write queue length does an incoming req see
system.mem_ctrls1.wrQLenPdf::27                 14081                       # What write queue length does an incoming req see
system.mem_ctrls1.wrQLenPdf::28                 14063                       # What write queue length does an incoming req see
system.mem_ctrls1.wrQLenPdf::29                 14049                       # What write queue length does an incoming req see
system.mem_ctrls1.wrQLenPdf::30                 14082                       # What write queue length does an incoming req see
system.mem_ctrls1.wrQLenPdf::31                 14014                       # What write queue length does an incoming req see
system.mem_ctrls1.wrQLenPdf::32                 13990                       # What write queue length does an incoming req see
system.mem_ctrls1.wrQLenPdf::33                    74                       # What write queue length does an incoming req see
system.mem_ctrls1.wrQLenPdf::34                    11                       # What write queue length does an incoming req see
system.mem_ctrls1.wrQLenPdf::35                     1                       # What write queue length does an incoming req see
system.mem_ctrls1.wrQLenPdf::36                     1                       # What write queue length does an incoming req see
system.mem_ctrls1.wrQLenPdf::37                     0                       # What write queue length does an incoming req see
system.mem_ctrls1.wrQLenPdf::38                     0                       # What write queue length does an incoming req see
system.mem_ctrls1.wrQLenPdf::39                     0                       # What write queue length does an incoming req see
system.mem_ctrls1.wrQLenPdf::40                     0                       # What write queue length does an incoming req see
system.mem_ctrls1.wrQLenPdf::41                     0                       # What write queue length does an incoming req see
system.mem_ctrls1.wrQLenPdf::42                     0                       # What write queue length does an incoming req see
system.mem_ctrls1.wrQLenPdf::43                     0                       # What write queue length does an incoming req see
system.mem_ctrls1.wrQLenPdf::44                     0                       # What write queue length does an incoming req see
system.mem_ctrls1.wrQLenPdf::45                     0                       # What write queue length does an incoming req see
system.mem_ctrls1.wrQLenPdf::46                     0                       # What write queue length does an incoming req see
system.mem_ctrls1.wrQLenPdf::47                     0                       # What write queue length does an incoming req see
system.mem_ctrls1.wrQLenPdf::48                     0                       # What write queue length does an incoming req see
system.mem_ctrls1.wrQLenPdf::49                     0                       # What write queue length does an incoming req see
system.mem_ctrls1.wrQLenPdf::50                     0                       # What write queue length does an incoming req see
system.mem_ctrls1.wrQLenPdf::51                     0                       # What write queue length does an incoming req see
system.mem_ctrls1.wrQLenPdf::52                     0                       # What write queue length does an incoming req see
system.mem_ctrls1.wrQLenPdf::53                     0                       # What write queue length does an incoming req see
system.mem_ctrls1.wrQLenPdf::54                     0                       # What write queue length does an incoming req see
system.mem_ctrls1.wrQLenPdf::55                     0                       # What write queue length does an incoming req see
system.mem_ctrls1.wrQLenPdf::56                     0                       # What write queue length does an incoming req see
system.mem_ctrls1.wrQLenPdf::57                     0                       # What write queue length does an incoming req see
system.mem_ctrls1.wrQLenPdf::58                     0                       # What write queue length does an incoming req see
system.mem_ctrls1.wrQLenPdf::59                     0                       # What write queue length does an incoming req see
system.mem_ctrls1.wrQLenPdf::60                     0                       # What write queue length does an incoming req see
system.mem_ctrls1.wrQLenPdf::61                     0                       # What write queue length does an incoming req see
system.mem_ctrls1.wrQLenPdf::62                     0                       # What write queue length does an incoming req see
system.mem_ctrls1.wrQLenPdf::63                     0                       # What write queue length does an incoming req see
system.mem_ctrls1.bytesPerActivate::samples       382999                       # Bytes accessed per row activation
system.mem_ctrls1.bytesPerActivate::mean   103.080541                       # Bytes accessed per row activation
system.mem_ctrls1.bytesPerActivate::gmean    83.493675                       # Bytes accessed per row activation
system.mem_ctrls1.bytesPerActivate::stdev   108.949097                       # Bytes accessed per row activation
system.mem_ctrls1.bytesPerActivate::0-127       288294     75.27%     75.27% # Bytes accessed per row activation
system.mem_ctrls1.bytesPerActivate::128-255        67133     17.53%     92.80% # Bytes accessed per row activation
system.mem_ctrls1.bytesPerActivate::256-383        15680      4.09%     96.90% # Bytes accessed per row activation
system.mem_ctrls1.bytesPerActivate::384-511         5891      1.54%     98.43% # Bytes accessed per row activation
system.mem_ctrls1.bytesPerActivate::512-639         1938      0.51%     98.94% # Bytes accessed per row activation
system.mem_ctrls1.bytesPerActivate::640-767          966      0.25%     99.19% # Bytes accessed per row activation
system.mem_ctrls1.bytesPerActivate::768-895          775      0.20%     99.39% # Bytes accessed per row activation
system.mem_ctrls1.bytesPerActivate::896-1023          645      0.17%     99.56% # Bytes accessed per row activation
system.mem_ctrls1.bytesPerActivate::1024-1151         1677      0.44%    100.00% # Bytes accessed per row activation
system.mem_ctrls1.bytesPerActivate::total       382999                       # Bytes accessed per row activation
system.mem_ctrls1.rdPerTurnAround::samples        13987                       # Reads before turning the bus around for writes
system.mem_ctrls1.rdPerTurnAround::mean     26.461142                       # Reads before turning the bus around for writes
system.mem_ctrls1.rdPerTurnAround::stdev   244.986206                       # Reads before turning the bus around for writes
system.mem_ctrls1.rdPerTurnAround::0-1023        13986     99.99%     99.99% # Reads before turning the bus around for writes
system.mem_ctrls1.rdPerTurnAround::28672-29695            1      0.01%    100.00% # Reads before turning the bus around for writes
system.mem_ctrls1.rdPerTurnAround::total        13987                       # Reads before turning the bus around for writes
system.mem_ctrls1.wrPerTurnAround::samples        13987                       # Writes before turning the bus around for reads
system.mem_ctrls1.wrPerTurnAround::mean     17.629656                       # Writes before turning the bus around for reads
system.mem_ctrls1.wrPerTurnAround::gmean    17.604492                       # Writes before turning the bus around for reads
system.mem_ctrls1.wrPerTurnAround::stdev     0.928889                       # Writes before turning the bus around for reads
system.mem_ctrls1.wrPerTurnAround::16            3067     21.93%     21.93% # Writes before turning the bus around for reads
system.mem_ctrls1.wrPerTurnAround::17             192      1.37%     23.30% # Writes before turning the bus around for reads
system.mem_ctrls1.wrPerTurnAround::18            9721     69.50%     92.80% # Writes before turning the bus around for reads
system.mem_ctrls1.wrPerTurnAround::19             898      6.42%     99.22% # Writes before turning the bus around for reads
system.mem_ctrls1.wrPerTurnAround::20              90      0.64%     99.86% # Writes before turning the bus around for reads
system.mem_ctrls1.wrPerTurnAround::21              12      0.09%     99.95% # Writes before turning the bus around for reads
system.mem_ctrls1.wrPerTurnAround::22               6      0.04%     99.99% # Writes before turning the bus around for reads
system.mem_ctrls1.wrPerTurnAround::26               1      0.01%    100.00% # Writes before turning the bus around for reads
system.mem_ctrls1.wrPerTurnAround::total        13987                       # Writes before turning the bus around for reads
system.mem_ctrls1.totQLat                 17108971325                       # Total ticks spent queuing
system.mem_ctrls1.totMemAccLat            24051815075                       # Total ticks spent from burst creation until serviced by the DRAM
system.mem_ctrls1.totBusLat                1851425000                       # Total ticks spent in databus transfers
system.mem_ctrls1.avgQLat                    46204.87                       # Average queueing delay per DRAM burst
system.mem_ctrls1.avgBusLat                   5000.00                       # Average bus latency per DRAM burst
system.mem_ctrls1.avgMemAccLat               64954.87                       # Average memory access latency per DRAM burst
system.mem_ctrls1.avgRdBW                       19.09                       # Average DRAM read bandwidth in MiByte/s
system.mem_ctrls1.avgWrBW                       12.71                       # Average achieved write bandwidth in MiByte/s
system.mem_ctrls1.avgRdBWSys                    19.12                       # Average system read bandwidth in MiByte/s
system.mem_ctrls1.avgWrBWSys                    12.71                       # Average system write bandwidth in MiByte/s
system.mem_ctrls1.peakBW                     12800.00                       # Theoretical peak bandwidth in MiByte/s
system.mem_ctrls1.busUtil                        0.25                       # Data bus utilization in percentage
system.mem_ctrls1.busUtilRead                    0.15                       # Data bus utilization in percentage for reads
system.mem_ctrls1.busUtilWrite                   0.10                       # Data bus utilization in percentage for writes
system.mem_ctrls1.avgRdQLen                      1.00                       # Average read queue length when enqueuing
system.mem_ctrls1.avgWrQLen                     23.04                       # Average write queue length when enqueuing
system.mem_ctrls1.readRowHits                  181435                       # Number of row buffer hits during reads
system.mem_ctrls1.writeRowHits                  52437                       # Number of row buffer hits during writes
system.mem_ctrls1.readRowHitRate                49.00                       # Row buffer hit rate for reads
system.mem_ctrls1.writeRowHitRate               21.26                       # Row buffer hit rate for writes
system.mem_ctrls1.avgGap                   2010070.64                       # Average gap between requests
system.mem_ctrls1.pageHitRate                   37.91                       # Row buffer hit rate, read and write combined
system.mem_ctrls1_0.actEnergy              1378698300                       # Energy for activate commands per rank (pJ)
system.mem_ctrls1_0.preEnergy               732795525                       # Energy for precharge commands per rank (pJ)
system.mem_ctrls1_0.readEnergy             1334487420                       # Energy for read commands per rank (pJ)
system.mem_ctrls1_0.writeEnergy             648892980                       # Energy for write commands per rank (pJ)
system.mem_ctrls1_0.refreshEnergy        41869891440.000008                       # Energy for refresh commands per rank (pJ)
system.mem_ctrls1_0.actBackEnergy         23888758710                       # Energy for active background per rank (pJ)
system.mem_ctrls1_0.preBackEnergy          1994368320                       # Energy for precharge background per rank (pJ)
system.mem_ctrls1_0.actPowerDownEnergy   111388075890                       # Energy for active power-down per rank (pJ)
system.mem_ctrls1_0.prePowerDownEnergy    54652112640                       # Energy for precharge power-down per rank (pJ)
system.mem_ctrls1_0.selfRefreshEnergy    197931319845                       # Energy for self refresh per rank (pJ)
system.mem_ctrls1_0.totalEnergy          435834003480                       # Total energy per rank (pJ)
system.mem_ctrls1_0.averagePower           351.052269                       # Core power per rank (mW)
system.mem_ctrls1_0.totalIdleTime        1183627996655                       # Total Idle time Per DRAM Rank
system.mem_ctrls1_0.memoryStateTime::IDLE   3461520896                       # Time in different power states
system.mem_ctrls1_0.memoryStateTime::REF  17784090000                       # Time in different power states
system.mem_ctrls1_0.memoryStateTime::SREF 797298252018                       # Time in different power states
system.mem_ctrls1_0.memoryStateTime::PRE_PDN 142323413830                       # Time in different power states
system.mem_ctrls1_0.memoryStateTime::ACT  36368593921                       # Time in different power states
system.mem_ctrls1_0.memoryStateTime::ACT_PDN 244271561353                       # Time in different power states
system.mem_ctrls1_1.actEnergy              1355914560                       # Energy for activate commands per rank (pJ)
system.mem_ctrls1_1.preEnergy               720685680                       # Energy for precharge commands per rank (pJ)
system.mem_ctrls1_1.readEnergy             1309347480                       # Energy for read commands per rank (pJ)
system.mem_ctrls1_1.writeEnergy             638285940                       # Energy for write commands per rank (pJ)
system.mem_ctrls1_1.refreshEnergy        42429828480.000008                       # Energy for refresh commands per rank (pJ)
system.mem_ctrls1_1.actBackEnergy         23826953040                       # Energy for active background per rank (pJ)
system.mem_ctrls1_1.preBackEnergy          2012361600                       # Energy for precharge background per rank (pJ)
system.mem_ctrls1_1.actPowerDownEnergy   113039197740                       # Energy for active power-down per rank (pJ)
system.mem_ctrls1_1.prePowerDownEnergy    55750380960                       # Energy for precharge power-down per rank (pJ)
system.mem_ctrls1_1.selfRefreshEnergy    196450449975                       # Energy for self refresh per rank (pJ)
system.mem_ctrls1_1.totalEnergy          437547047565                       # Total energy per rank (pJ)
system.mem_ctrls1_1.averagePower           352.432078                       # Core power per rank (mW)
system.mem_ctrls1_1.totalIdleTime        1183733346493                       # Total Idle time Per DRAM Rank
system.mem_ctrls1_1.memoryStateTime::IDLE   3487096316                       # Time in different power states
system.mem_ctrls1_1.memoryStateTime::REF  18021742000                       # Time in different power states
system.mem_ctrls1_1.memoryStateTime::SREF 790908252518                       # Time in different power states
system.mem_ctrls1_1.memoryStateTime::PRE_PDN 145183026662                       # Time in different power states
system.mem_ctrls1_1.memoryStateTime::ACT  36013740680                       # Time in different power states
system.mem_ctrls1_1.memoryStateTime::ACT_PDN 247893573842                       # Time in different power states
system.pwrStateResidencyTicks::UNDEFINED 191292817347018                       # Cumulative time (in ticks) in various power states
system.cpu.branchPred.lookups                       4                       # Number of BP lookups
system.cpu.branchPred.condPredicted                 2                       # Number of conditional branches predicted
system.cpu.branchPred.condIncorrect                 2                       # Number of conditional branches incorrect
system.cpu.branchPred.BTBLookups                    2                       # Number of BTB lookups
system.cpu.branchPred.BTBHits                       0                       # Number of BTB hits
system.cpu.branchPred.BTBCorrect                    0                       # Number of correct BTB predictions (this stat may not work properly.
system.cpu.branchPred.BTBHitPct              0.000000                       # BTB Hit Percentage
system.cpu.branchPred.usedRAS                       0                       # Number of times the RAS was used to get a target.
system.cpu.branchPred.RASInCorrect                  0                       # Number of incorrect RAS predictions.
system.cpu.branchPred.indirectLookups               0                       # Number of indirect predictor lookups.
system.cpu.branchPred.indirectHits                  0                       # Number of indirect target hits.
system.cpu.branchPred.indirectMisses                0                       # Number of indirect misses.
system.cpu.branchPredindirectMispredicted            0                       # Number of mispredicted indirect branches.
system.cpu_voltage_domain.voltage                   1                       # Voltage in Volts
system.cpu_clk_domain.clock                       333                       # Clock period in ticks
system.cpu.dtb.fetch_hits                           0                       # ITB hits
system.cpu.dtb.fetch_misses                         0                       # ITB misses
system.cpu.dtb.fetch_acv                            0                       # ITB acv
system.cpu.dtb.fetch_accesses                       0                       # ITB accesses
system.cpu.dtb.read_hits                            6                       # DTB read hits
system.cpu.dtb.read_misses                          0                       # DTB read misses
system.cpu.dtb.read_acv                             0                       # DTB read access violations
system.cpu.dtb.read_accesses                        6                       # DTB read accesses
system.cpu.dtb.write_hits                           1                       # DTB write hits
system.cpu.dtb.write_misses                         0                       # DTB write misses
system.cpu.dtb.write_acv                            0                       # DTB write access violations
system.cpu.dtb.write_accesses                       1                       # DTB write accesses
system.cpu.dtb.data_hits                            7                       # DTB hits
system.cpu.dtb.data_misses                          0                       # DTB misses
system.cpu.dtb.data_acv                             0                       # DTB access violations
system.cpu.dtb.data_accesses                        7                       # DTB accesses
system.cpu.itb.fetch_hits                           7                       # ITB hits
system.cpu.itb.fetch_misses                         0                       # ITB misses
system.cpu.itb.fetch_acv                            0                       # ITB acv
system.cpu.itb.fetch_accesses                       7                       # ITB accesses
system.cpu.itb.read_hits                            0                       # DTB read hits
system.cpu.itb.read_misses                          0                       # DTB read misses
system.cpu.itb.read_acv                             0                       # DTB read access violations
system.cpu.itb.read_accesses                        0                       # DTB read accesses
system.cpu.itb.write_hits                           0                       # DTB write hits
system.cpu.itb.write_misses                         0                       # DTB write misses
system.cpu.itb.write_acv                            0                       # DTB write access violations
system.cpu.itb.write_accesses                       0                       # DTB write accesses
system.cpu.itb.data_hits                            0                       # DTB hits
system.cpu.itb.data_misses                          0                       # DTB misses
system.cpu.itb.data_acv                             0                       # DTB access violations
system.cpu.itb.data_accesses                        0                       # DTB accesses
system.cpu.workload.num_syscalls                    0                       # Number of system calls
system.cpu.pwrStateResidencyTicks::ON    1241507432018                       # Cumulative time (in ticks) in various power states
system.cpu.numCycles                             1048                       # number of cpu cycles simulated
system.cpu.numWorkItemsStarted                      0                       # number of work items this cpu started
system.cpu.numWorkItemsCompleted                    0                       # number of work items this cpu completed
system.cpu.fetch.icacheStallCycles                 50                       # Number of cycles fetch is stalled on an Icache miss
system.cpu.fetch.Insts                             19                       # Number of instructions fetch has processed
system.cpu.fetch.Branches                           4                       # Number of branches that fetch encountered
system.cpu.fetch.Cycles                             4                       # Number of cycles fetch has run and was not squashing or blocked
system.cpu.fetch.SquashCycles                       7                       # Number of cycles fetch has spent squashing
system.cpu.fetch.PendingDrainCycles                 6                       # Number of cycles fetch has spent waiting on pipes to drain
system.cpu.fetch.CacheLines                         7                       # Number of cache lines fetched
system.cpu.fetch.IcacheSquashes                     4                       # Number of outstanding Icache misses that were squashed
system.cpu.fetch.rateDist::samples                 63                       # Number of instructions fetched each cycle (Total)
system.cpu.fetch.rateDist::mean              0.301587                       # Number of instructions fetched each cycle (Total)
system.cpu.fetch.rateDist::stdev             1.432738                       # Number of instructions fetched each cycle (Total)
system.cpu.fetch.rateDist::underflows               0      0.00%      0.00% # Number of instructions fetched each cycle (Total)
system.cpu.fetch.rateDist::0                       59     93.65%     93.65% # Number of instructions fetched each cycle (Total)
system.cpu.fetch.rateDist::1                        1      1.59%     95.24% # Number of instructions fetched each cycle (Total)
system.cpu.fetch.rateDist::2                        1      1.59%     96.83% # Number of instructions fetched each cycle (Total)
system.cpu.fetch.rateDist::3                        0      0.00%     96.83% # Number of instructions fetched each cycle (Total)
system.cpu.fetch.rateDist::4                        0      0.00%     96.83% # Number of instructions fetched each cycle (Total)
system.cpu.fetch.rateDist::5                        0      0.00%     96.83% # Number of instructions fetched each cycle (Total)
[...]
system.switch_cpus_1.iq.int_inst_queue_writes    560102404                       # Number of integer instruction queue writes
system.switch_cpus_1.iq.int_inst_queue_wakeup_accesses    316361597                       # Number of integer instruction queue wakeup accesses
system.switch_cpus_1.iq.fp_inst_queue_reads          222                       # Number of floating instruction queue reads
system.switch_cpus_1.iq.fp_inst_queue_writes          177                       # Number of floating instruction queue writes
system.switch_cpus_1.iq.fp_inst_queue_wakeup_accesses          101                       # Number of floating instruction queue wakeup accesses
system.switch_cpus_1.iq.int_alu_accesses    341207633                       # Number of integer alu accesses
system.switch_cpus_1.iq.fp_alu_accesses           111                       # Number of floating point alu accesses
system.switch_cpus_1.iew.lsq.thread0.forwLoads      3717222                       # Number of loads that had data forwarded from stores
system.switch_cpus_1.iew.lsq.thread0.invAddrLoads            0                       # Number of loads ignored due to an invalid address
system.switch_cpus_1.iew.lsq.thread0.squashedLoads     43020741                       # Number of loads squashed
system.switch_cpus_1.iew.lsq.thread0.ignoredResponses        24627                       # Number of memory responses ignored because the instruction is squashed
system.switch_cpus_1.iew.lsq.thread0.memOrderViolation        12263                       # Number of memory ordering violations
system.switch_cpus_1.iew.lsq.thread0.squashedStores     13357327                       # Number of stores squashed
system.switch_cpus_1.iew.lsq.thread0.invAddrSwpfs            0                       # Number of software prefetches ignored due to an invalid address
system.switch_cpus_1.iew.lsq.thread0.blockedLoads            0                       # Number of blocked loads due to partial load-store forwarding
system.switch_cpus_1.iew.lsq.thread0.rescheduledLoads            0                       # Number of loads that were rescheduled
system.switch_cpus_1.iew.lsq.thread0.cacheBlocked      6235260                       # Number of times an access to memory failed due to the cache being blocked
system.switch_cpus_1.iew.iewIdleCycles              0                       # Number of cycles IEW is idle
system.switch_cpus_1.iew.iewSquashCycles      3282231                       # Number of cycles IEW is squashing
system.switch_cpus_1.iew.iewBlockCycles      41005403                       # Number of cycles IEW is blocking
system.switch_cpus_1.iew.iewUnblockCycles     11609458                       # Number of cycles IEW is unblocking
system.switch_cpus_1.iew.iewDispatchedInsts    380740313                       # Number of instructions dispatched to IQ
system.switch_cpus_1.iew.iewDispSquashedInsts       966671                       # Number of squashed instructions skipped by dispatch
system.switch_cpus_1.iew.iewDispLoadInsts     92453489                       # Number of dispatched load instructions
system.switch_cpus_1.iew.iewDispStoreInsts     27422815                       # Number of dispatched store instructions
system.switch_cpus_1.iew.iewDispNonSpecInsts            0                       # Number of dispatched non-speculative instructions
system.switch_cpus_1.iew.iewIQFullEvents       210683                       # Number of times the IQ has become full, causing a stall
system.switch_cpus_1.iew.iewLSQFullEvents     11268719                       # Number of times the LSQ has become full, causing a stall
system.switch_cpus_1.iew.memOrderViolationEvents        12263                       # Number of memory order violations
system.switch_cpus_1.iew.predictedTakenIncorrect      1681376                       # Number of branches that were predicted taken incorrectly
system.switch_cpus_1.iew.predictedNotTakenIncorrect      1798671                       # Number of branches that were predicted not taken incorrectly
system.switch_cpus_1.iew.branchMispredicts      3480047                       # Number of branch mispredicts detected at execute
system.switch_cpus_1.iew.iewExecutedInsts    330457599                       # Number of executed instructions
system.switch_cpus_1.iew.iewExecLoadInsts     86850753                       # Number of load instructions executed
system.switch_cpus_1.iew.iewExecSquashedInsts      6264638                       # Number of squashed instructions skipped in execute
system.switch_cpus_1.iew.exec_swp                   0                       # number of swp insts executed
system.switch_cpus_1.iew.exec_nop              694820                       # number of nop insts executed
system.switch_cpus_1.iew.exec_refs          107696555                       # number of memory reference insts executed
system.switch_cpus_1.iew.exec_branches       38455376                       # Number of branches executed
system.switch_cpus_1.iew.exec_stores         20845802                       # Number of stores executed
system.switch_cpus_1.iew.exec_rate           1.582720                       # Inst execution rate
system.switch_cpus_1.iew.wb_sent            319921094                       # cumulative count of insts sent to commit
system.switch_cpus_1.iew.wb_count           316361698                       # cumulative count of insts written-back
system.switch_cpus_1.iew.wb_producers       205803204                       # num instructions producing a value
system.switch_cpus_1.iew.wb_consumers       270442070                       # num instructions consuming a value
system.switch_cpus_1.iew.wb_rate             1.515208                       # insts written-back per cycle
system.switch_cpus_1.iew.wb_fanout           0.760988                       # average fanout of values written-back
system.switch_cpus_1.commit.commitSquashedInsts    170955834                       # The number of squashed insts skipped by commit
system.switch_cpus_1.commit.branchMispredicts      2837443                       # The number of times a branch was mispredicted
system.switch_cpus_1.commit.committed_per_cycle::samples    185046525                       # Number of insts commited each cycle
system.switch_cpus_1.commit.committed_per_cycle::mean     1.083722                       # Number of insts commited each cycle
system.switch_cpus_1.commit.committed_per_cycle::stdev     2.287653                       # Number of insts commited each cycle
system.switch_cpus_1.commit.committed_per_cycle::underflows            0      0.00%      0.00% # Number of insts commited each cycle
system.switch_cpus_1.commit.committed_per_cycle::0    131167116     70.88%     70.88% # Number of insts commited each cycle
system.switch_cpus_1.commit.committed_per_cycle::1     17137861      9.26%     80.14% # Number of insts commited each cycle
system.switch_cpus_1.commit.committed_per_cycle::2     11056758      5.98%     86.12% # Number of insts commited each cycle
system.switch_cpus_1.commit.committed_per_cycle::3      4947964      2.67%     88.79% # Number of insts commited each cycle
system.switch_cpus_1.commit.committed_per_cycle::4      2519811      1.36%     90.16% # Number of insts commited each cycle
system.switch_cpus_1.commit.committed_per_cycle::5      1897829      1.03%     91.18% # Number of insts commited each cycle
system.switch_cpus_1.commit.committed_per_cycle::6      1414385      0.76%     91.95% # Number of insts commited each cycle
system.switch_cpus_1.commit.committed_per_cycle::7       849444      0.46%     92.40% # Number of insts commited each cycle
system.switch_cpus_1.commit.committed_per_cycle::8     14055357      7.60%    100.00% # Number of insts commited each cycle
system.switch_cpus_1.commit.committed_per_cycle::overflows            0      0.00%    100.00% # Number of insts commited each cycle
system.switch_cpus_1.commit.committed_per_cycle::min_value            0                       # Number of insts commited each cycle
system.switch_cpus_1.commit.committed_per_cycle::max_value            8                       # Number of insts commited each cycle
system.switch_cpus_1.commit.committed_per_cycle::total    185046525                       # Number of insts commited each cycle
system.switch_cpus_1.commit.committedInsts    200538932                       # Number of instructions committed
system.switch_cpus_1.commit.committedOps    200538932                       # Number of ops (including micro ops) committed
system.switch_cpus_1.commit.swp_count               0                       # Number of s/w prefetches committed
system.switch_cpus_1.commit.refs             63498195                       # Number of memory references committed
system.switch_cpus_1.commit.loads            49432720                       # Number of loads committed
system.switch_cpus_1.commit.membars                 0                       # Number of memory barriers committed
system.switch_cpus_1.commit.branches         24329166                       # Number of branches committed
system.switch_cpus_1.commit.fp_insts               91                       # Number of committed floating point instructions.
system.switch_cpus_1.commit.int_insts       197997126                       # Number of committed integer instructions.
system.switch_cpus_1.commit.function_calls       749984                       # Number of function calls committed.
system.switch_cpus_1.commit.op_class_0::No_OpClass       538941      0.27%      0.27% # Class of committed instruction
system.switch_cpus_1.commit.op_class_0::IntAlu    136501742     68.07%     68.34% # Class of committed instruction
system.switch_cpus_1.commit.op_class_0::IntMult            0      0.00%     68.34% # Class of committed instruction
system.switch_cpus_1.commit.op_class_0::IntDiv            0      0.00%     68.34% # Class of committed instruction
system.switch_cpus_1.commit.op_class_0::FloatAdd           30      0.00%     68.34% # Class of committed instruction
system.switch_cpus_1.commit.op_class_0::FloatCmp            0      0.00%     68.34% # Class of committed instruction
system.switch_cpus_1.commit.op_class_0::FloatCvt           18      0.00%     68.34% # Class of committed instruction
system.switch_cpus_1.commit.op_class_0::FloatMult            0      0.00%     68.34% # Class of committed instruction
system.switch_cpus_1.commit.op_class_0::FloatMultAcc            0      0.00%     68.34% # Class of committed instruction
system.switch_cpus_1.commit.op_class_0::FloatDiv            6      0.00%     68.34% # Class of committed instruction
system.switch_cpus_1.commit.op_class_0::FloatMisc            0      0.00%     68.34% # Class of committed instruction
system.switch_cpus_1.commit.op_class_0::FloatSqrt            0      0.00%     68.34% # Class of committed instruction
system.switch_cpus_1.commit.op_class_0::SimdAdd            0      0.00%     68.34% # Class of committed instruction
system.switch_cpus_1.commit.op_class_0::SimdAddAcc            0      0.00%     68.34% # Class of committed instruction
system.switch_cpus_1.commit.op_class_0::SimdAlu            0      0.00%     68.34% # Class of committed instruction
system.switch_cpus_1.commit.op_class_0::SimdCmp            0      0.00%     68.34% # Class of committed instruction
system.switch_cpus_1.commit.op_class_0::SimdCvt            0      0.00%     68.34% # Class of committed instruction
system.switch_cpus_1.commit.op_class_0::SimdMisc            0      0.00%     68.34% # Class of committed instruction
system.switch_cpus_1.commit.op_class_0::SimdMult            0      0.00%     68.34% # Class of committed instruction
system.switch_cpus_1.commit.op_class_0::SimdMultAcc            0      0.00%     68.34% # Class of committed instruction
system.switch_cpus_1.commit.op_class_0::SimdShift            0      0.00%     68.34% # Class of committed instruction
system.switch_cpus_1.commit.op_class_0::SimdShiftAcc            0      0.00%     68.34% # Class of committed instruction
system.switch_cpus_1.commit.op_class_0::SimdSqrt            0      0.00%     68.34% # Class of committed instruction
system.switch_cpus_1.commit.op_class_0::SimdFloatAdd            0      0.00%     68.34% # Class of committed instruction
system.switch_cpus_1.commit.op_class_0::SimdFloatAlu            0      0.00%     68.34% # Class of committed instruction
system.switch_cpus_1.commit.op_class_0::SimdFloatCmp            0      0.00%     68.34% # Class of committed instruction
system.switch_cpus_1.commit.op_class_0::SimdFloatCvt            0      0.00%     68.34% # Class of committed instruction
system.switch_cpus_1.commit.op_class_0::SimdFloatDiv            0      0.00%     68.34% # Class of committed instruction
system.switch_cpus_1.commit.op_class_0::SimdFloatMisc            0      0.00%     68.34% # Class of committed instruction
system.switch_cpus_1.commit.op_class_0::SimdFloatMult            0      0.00%     68.34% # Class of committed instruction
system.switch_cpus_1.commit.op_class_0::SimdFloatMultAcc            0      0.00%     68.34% # Class of committed instruction
system.switch_cpus_1.commit.op_class_0::SimdFloatSqrt            0      0.00%     68.34% # Class of committed instruction
system.switch_cpus_1.commit.op_class_0::MemRead     49432701     24.65%     92.99% # Class of committed instruction
system.switch_cpus_1.commit.op_class_0::MemWrite     14065457      7.01%    100.00% # Class of committed instruction
system.switch_cpus_1.commit.op_class_0::FloatMemRead           19      0.00%    100.00% # Class of committed instruction
system.switch_cpus_1.commit.op_class_0::FloatMemWrite           18      0.00%    100.00% # Class of committed instruction
system.switch_cpus_1.commit.op_class_0::IprAccess            0      0.00%    100.00% # Class of committed instruction
system.switch_cpus_1.commit.op_class_0::InstPrefetch            0      0.00%    100.00% # Class of committed instruction
system.switch_cpus_1.commit.op_class_0::total    200538932                       # Class of committed instruction
system.switch_cpus_1.commit.bw_lim_events     14055357                       # number cycles where commit BW limit reached
system.switch_cpus_1.rob.rob_reads          536830310                       # The number of ROB reads
system.switch_cpus_1.rob.rob_writes         766748168                       # The number of ROB writes
system.switch_cpus_1.timesIdled                   189                       # Number of times that the entire CPU went into an idle state and unscheduled itself
system.switch_cpus_1.idleCycles                 15529                       # Total number of cycles that the CPU has spent unscheduled due to idling
system.switch_cpus_1.committedInsts         200000003                       # Number of Instructions Simulated
system.switch_cpus_1.committedOps           200000003                       # Number of Ops (including micro ops) Simulated
system.switch_cpus_1.cpi                     1.043955                       # CPI: Cycles Per Instruction
system.switch_cpus_1.cpi_total               1.043955                       # CPI: Total CPI of All Threads
system.switch_cpus_1.ipc                     0.957896                       # IPC: Instructions Per Cycle
system.switch_cpus_1.ipc_total               0.957896                       # IPC: Total IPC of All Threads
system.switch_cpus_1.int_regfile_reads      449714804                       # number of integer regfile reads
system.switch_cpus_1.int_regfile_writes     260586555                       # number of integer regfile writes
system.switch_cpus_1.fp_regfile_reads              63                       # number of floating regfile reads
system.switch_cpus_1.fp_regfile_writes            103                       # number of floating regfile writes
system.switch_cpus_1.misc_regfile_reads            12                       # number of misc regfile reads
system.switch_cpus_1.misc_regfile_writes            6                       # number of misc regfile writes
system.tol3bus.snoop_filter.tot_requests     15148812                       # Total number of requests made to the snoop filter.
system.tol3bus.snoop_filter.hit_single_requests      7572257                       # Number of requests hitting in the snoop filter with a single holder of the requested data.
system.tol3bus.snoop_filter.hit_multi_requests            0                       # Number of requests hitting in the snoop filter with multiple (>1) holders of the requested data.
system.tol3bus.snoop_filter.tot_snoops            541                       # Total number of snoops made to the snoop filter.
system.tol3bus.snoop_filter.hit_single_snoops          541                       # Number of snoops hitting in the snoop filter with a single holder of the requested data.
system.tol3bus.snoop_filter.hit_multi_snoops            0                       # Number of snoops hitting in the snoop filter with multiple (>1) holders of the requested data.
system.tol3bus.pwrStateResidencyTicks::UNDEFINED 191292817347018                       # Cumulative time (in ticks) in various power states
system.tol3bus.trans_dist::ReadResp           5401147                       # Transaction distribution
system.tol3bus.trans_dist::WritebackDirty      4440328                       # Transaction distribution
system.tol3bus.trans_dist::CleanEvict         3807640                       # Transaction distribution
system.tol3bus.trans_dist::UpgradeReq               5                       # Transaction distribution
system.tol3bus.trans_dist::UpgradeResp              5                       # Transaction distribution
system.tol3bus.trans_dist::ReadExReq          2175408                       # Transaction distribution
system.tol3bus.trans_dist::ReadExResp         2175408                       # Transaction distribution
system.tol3bus.trans_dist::ReadSharedReq      5401147                       # Transaction distribution
system.tol3bus.pkt_count_system.cpu.l2.mem_side::system.l3.cpu_side     22725372                       # Packet count per connected master and slave (bytes)
system.tol3bus.pkt_size_system.cpu.l2.mem_side::system.l3.cpu_side    737541056                       # Cumulative packet size per connected master and slave (bytes)
system.tol3bus.snoops                          675716                       # Total snoops (count)
system.tol3bus.snoopTraffic                  31539456                       # Total snoop traffic (bytes)
system.tol3bus.snoop_fanout::samples          8252276                       # Request fanout histogram
system.tol3bus.snoop_fanout::mean            0.000066                       # Request fanout histogram
system.tol3bus.snoop_fanout::stdev           0.008097                       # Request fanout histogram
system.tol3bus.snoop_fanout::underflows             0      0.00%      0.00% # Request fanout histogram
system.tol3bus.snoop_fanout::0                8251735     99.99%     99.99% # Request fanout histogram
system.tol3bus.snoop_fanout::1                    541      0.01%    100.00% # Request fanout histogram
system.tol3bus.snoop_fanout::overflows              0      0.00%    100.00% # Request fanout histogram
system.tol3bus.snoop_fanout::min_value              0                       # Request fanout histogram
system.tol3bus.snoop_fanout::max_value              1                       # Request fanout histogram
system.tol3bus.snoop_fanout::total            8252276                       # Request fanout histogram
system.tol3bus.reqLayer0.occupancy         6359079888                       # Layer occupancy (ticks)
system.tol3bus.reqLayer0.utilization              0.5                       # Layer utilization (%)
system.tol3bus.respLayer0.occupancy        5045987295                       # Layer occupancy (ticks)
system.tol3bus.respLayer0.utilization             0.4                       # Layer utilization (%)

---------- End Simulation Statistics   ----------
