
---------- Begin Simulation Statistics ----------
sim_seconds                                 16.582570                       # Number of seconds simulated
sim_ticks                                16582570179894                       # Number of ticks simulated
final_tick                               178664753342394                       # Number of ticks from beginning of simulation (restored from checkpoints and never reset)
sim_freq                                 1000000000000                       # Frequency of simulated ticks
host_inst_rate                                  22978                       # Simulator instruction rate (inst/s)
host_op_rate                                    22978                       # Simulator op (including micro ops) rate (op/s)
host_tick_rate                              254025233                       # Simulator tick rate (ticks/s)
host_mem_usage                                2689684                       # Number of bytes of host memory used
host_seconds                                 65279.22                       # Real time elapsed on the host
sim_insts                                  1500000006                       # Number of instructions simulated
sim_ops                                    1500000006                       # Number of ops (including micro ops) simulated
system.voltage_domain.voltage                       1                       # Voltage in Volts
system.clk_domain.clock                          1000                       # Clock period in ticks
system.mem_ctrls0.pwrStateResidencyTicks::UNDEFINED 178664753342394                       # Cumulative time (in ticks) in various power states
system.mem_ctrls0.bytes_read::cpu.inst            128                       # Number of bytes read from this memory
system.mem_ctrls0.bytes_read::switch_cpus.inst         1472                       # Number of bytes read from this memory
system.mem_ctrls0.bytes_read::switch_cpus.data   1948533632                       # Number of bytes read from this memory
system.mem_ctrls0.bytes_read::switch_cpus_1.inst          384                       # Number of bytes read from this memory
system.mem_ctrls0.bytes_read::switch_cpus_1.data    971830912                       # Number of bytes read from this memory
system.mem_ctrls0.bytes_read::total        2920366528                       # Number of bytes read from this memory
system.mem_ctrls0.bytes_inst_read::cpu.inst          128                       # Number of instructions bytes read from this memory
system.mem_ctrls0.bytes_inst_read::switch_cpus.inst         1472                       # Number of instructions bytes read from this memory
system.mem_ctrls0.bytes_inst_read::switch_cpus_1.inst          384                       # Number of instructions bytes read from this memory
system.mem_ctrls0.bytes_inst_read::total         1984                       # Number of instructions bytes read from this memory
system.mem_ctrls0.bytes_written::writebacks      8369600                       # Number of bytes written to this memory
system.mem_ctrls0.bytes_written::total        8369600                       # Number of bytes written to this memory
system.mem_ctrls0.num_reads::cpu.inst               2                       # Number of read requests responded to by this memory
system.mem_ctrls0.num_reads::switch_cpus.inst           23                       # Number of read requests responded to by this memory
system.mem_ctrls0.num_reads::switch_cpus.data     30445838                       # Number of read requests responded to by this memory
system.mem_ctrls0.num_reads::switch_cpus_1.inst            6                       # Number of read requests responded to by this memory
system.mem_ctrls0.num_reads::switch_cpus_1.data     15184858                       # Number of read requests responded to by this memory
system.mem_ctrls0.num_reads::total           45630727                       # Number of read requests responded to by this memory
system.mem_ctrls0.num_writes::writebacks       130775                       # Number of write requests responded to by this memory
system.mem_ctrls0.num_writes::total            130775                       # Number of write requests responded to by this memory
system.mem_ctrls0.bw_read::cpu.inst                 8                       # Total read bandwidth from this memory (bytes/s)
system.mem_ctrls0.bw_read::switch_cpus.inst           89                       # Total read bandwidth from this memory (bytes/s)
system.mem_ctrls0.bw_read::switch_cpus.data    117504923                       # Total read bandwidth from this memory (bytes/s)
system.mem_ctrls0.bw_read::switch_cpus_1.inst           23                       # Total read bandwidth from this memory (bytes/s)
system.mem_ctrls0.bw_read::switch_cpus_1.data     58605566                       # Total read bandwidth from this memory (bytes/s)
system.mem_ctrls0.bw_read::total            176110609                       # Total read bandwidth from this memory (bytes/s)
system.mem_ctrls0.bw_inst_read::cpu.inst            8                       # Instruction read bandwidth from this memory (bytes/s)
system.mem_ctrls0.bw_inst_read::switch_cpus.inst           89                       # Instruction read bandwidth from this memory (bytes/s)
system.mem_ctrls0.bw_inst_read::switch_cpus_1.inst           23                       # Instruction read bandwidth from this memory (bytes/s)
system.mem_ctrls0.bw_inst_read::total             120                       # Instruction read bandwidth from this memory (bytes/s)
system.mem_ctrls0.bw_write::writebacks         504723                       # Write bandwidth from this memory (bytes/s)
system.mem_ctrls0.bw_write::total              504723                       # Write bandwidth from this memory (bytes/s)
system.mem_ctrls0.bw_total::writebacks         504723                       # Total bandwidth to/from this memory (bytes/s)
system.mem_ctrls0.bw_total::cpu.inst                8                       # Total bandwidth to/from this memory (bytes/s)
system.mem_ctrls0.bw_total::switch_cpus.inst           89                       # Total bandwidth to/from this memory (bytes/s)
system.mem_ctrls0.bw_total::switch_cpus.data    117504923                       # Total bandwidth to/from this memory (bytes/s)
system.mem_ctrls0.bw_total::switch_cpus_1.inst           23                       # Total bandwidth to/from this memory (bytes/s)
system.mem_ctrls0.bw_total::switch_cpus_1.data     58605566                       # Total bandwidth to/from this memory (bytes/s)
system.mem_ctrls0.bw_total::total           176615331                       # Total bandwidth to/from this memory (bytes/s)
system.mem_ctrls0.readReqs                   45630727                       # Number of read requests accepted
system.mem_ctrls0.writeReqs                    130775                       # Number of write requests accepted
system.mem_ctrls0.readBursts                 45630727                       # Number of DRAM read bursts, including those serviced by the write queue
system.mem_ctrls0.writeBursts                  130775                       # Number of DRAM write bursts, including those merged in the write queue
system.mem_ctrls0.bytesReadDRAM            2919789120                       # Total number of bytes read from DRAM
system.mem_ctrls0.bytesReadWrQ                 577408                       # Total number of bytes read from write queue
system.mem_ctrls0.bytesWritten                8346816                       # Total number of bytes written to DRAM
system.mem_ctrls0.bytesReadSys             2920366528                       # Total read bytes from the system interface side
system.mem_ctrls0.bytesWrittenSys             8369600                       # Total written bytes from the system interface side
system.mem_ctrls0.servicedByWrQ                  9022                       # Number of DRAM read bursts serviced by the write queue
system.mem_ctrls0.mergedWrBursts                  341                       # Number of DRAM write bursts merged with an existing one
system.mem_ctrls0.neitherReadNorWriteReqs            0                       # Number of requests that are neither read nor write
system.mem_ctrls0.perBankRdBursts::0          2842350                       # Per bank write bursts
system.mem_ctrls0.perBankRdBursts::1          2851382                       # Per bank write bursts
system.mem_ctrls0.perBankRdBursts::2          2867640                       # Per bank write bursts
system.mem_ctrls0.perBankRdBursts::3          2865923                       # Per bank write bursts
system.mem_ctrls0.perBankRdBursts::4          2863124                       # Per bank write bursts
system.mem_ctrls0.perBankRdBursts::5          2853572                       # Per bank write bursts
system.mem_ctrls0.perBankRdBursts::6          2857020                       # Per bank write bursts
system.mem_ctrls0.perBankRdBursts::7          2842301                       # Per bank write bursts
system.mem_ctrls0.perBankRdBursts::8          2859978                       # Per bank write bursts
system.mem_ctrls0.perBankRdBursts::9          2849290                       # Per bank write bursts
system.mem_ctrls0.perBankRdBursts::10         2853593                       # Per bank write bursts
system.mem_ctrls0.perBankRdBursts::11         2862710                       # Per bank write bursts
system.mem_ctrls0.perBankRdBursts::12         2843273                       # Per bank write bursts
system.mem_ctrls0.perBankRdBursts::13         2842215                       # Per bank write bursts
system.mem_ctrls0.perBankRdBursts::14         2848105                       # Per bank write bursts
system.mem_ctrls0.perBankRdBursts::15         2819229                       # Per bank write bursts
system.mem_ctrls0.perBankWrBursts::0             7792                       # Per bank write bursts
system.mem_ctrls0.perBankWrBursts::1             7904                       # Per bank write bursts
system.mem_ctrls0.perBankWrBursts::2             7693                       # Per bank write bursts
system.mem_ctrls0.perBankWrBursts::3             9242                       # Per bank write bursts
system.mem_ctrls0.perBankWrBursts::4            10248                       # Per bank write bursts
system.mem_ctrls0.perBankWrBursts::5             7893                       # Per bank write bursts
system.mem_ctrls0.perBankWrBursts::6             7795                       # Per bank write bursts
system.mem_ctrls0.perBankWrBursts::7             8223                       # Per bank write bursts
system.mem_ctrls0.perBankWrBursts::8             8456                       # Per bank write bursts
system.mem_ctrls0.perBankWrBursts::9             7891                       # Per bank write bursts
system.mem_ctrls0.perBankWrBursts::10            8024                       # Per bank write bursts
system.mem_ctrls0.perBankWrBursts::11            7923                       # Per bank write bursts
system.mem_ctrls0.perBankWrBursts::12            7802                       # Per bank write bursts
system.mem_ctrls0.perBankWrBursts::13            7868                       # Per bank write bursts
system.mem_ctrls0.perBankWrBursts::14            7834                       # Per bank write bursts
system.mem_ctrls0.perBankWrBursts::15            7831                       # Per bank write bursts
system.mem_ctrls0.numRdRetry                        0                       # Number of times read queue was full causing retry
system.mem_ctrls0.numWrRetry                        0                       # Number of times write queue was full causing retry
system.mem_ctrls0.totGap                 16582569675489                       # Total gap between requests
system.mem_ctrls0.readPktSize::0                    0                       # Read request sizes (log2)
system.mem_ctrls0.readPktSize::1                    0                       # Read request sizes (log2)
system.mem_ctrls0.readPktSize::2                    0                       # Read request sizes (log2)
system.mem_ctrls0.readPktSize::3                    0                       # Read request sizes (log2)
system.mem_ctrls0.readPktSize::4                    0                       # Read request sizes (log2)
system.mem_ctrls0.readPktSize::5                    0                       # Read request sizes (log2)
system.mem_ctrls0.readPktSize::6             45630727                       # Read request sizes (log2)
system.mem_ctrls0.writePktSize::0                   0                       # Write request sizes (log2)
system.mem_ctrls0.writePktSize::1                   0                       # Write request sizes (log2)
system.mem_ctrls0.writePktSize::2                   0                       # Write request sizes (log2)
system.mem_ctrls0.writePktSize::3                   0                       # Write request sizes (log2)
system.mem_ctrls0.writePktSize::4                   0                       # Write request sizes (log2)
system.mem_ctrls0.writePktSize::5                   0                       # Write request sizes (log2)
system.mem_ctrls0.writePktSize::6              130775                       # Write request sizes (log2)
system.mem_ctrls0.rdQLenPdf::0               45584491                       # What read queue length does an incoming req see
system.mem_ctrls0.rdQLenPdf::1                  32700                       # What read queue length does an incoming req see
system.mem_ctrls0.rdQLenPdf::2                   4303                       # What read queue length does an incoming req see
system.mem_ctrls0.rdQLenPdf::3                    211                       # What read queue length does an incoming req see
system.mem_ctrls0.rdQLenPdf::4                      0                       # What read queue length does an incoming req see
system.mem_ctrls0.rdQLenPdf::5                      0                       # What read queue length does an incoming req see
system.mem_ctrls0.rdQLenPdf::6                      0                       # What read queue length does an incoming req see
system.mem_ctrls0.rdQLenPdf::7                      0                       # What read queue length does an incoming req see
system.mem_ctrls0.rdQLenPdf::8                      0                       # What read queue length does an incoming req see
system.mem_ctrls0.rdQLenPdf::9                      0                       # What read queue length does an incoming req see
system.mem_ctrls0.rdQLenPdf::10                     0                       # What read queue length does an incoming req see
system.mem_ctrls0.rdQLenPdf::11                     0                       # What read queue length does an incoming req see
system.mem_ctrls0.rdQLenPdf::12                     0                       # What read queue length does an incoming req see
system.mem_ctrls0.rdQLenPdf::13                     0                       # What read queue length does an incoming req see
system.mem_ctrls0.rdQLenPdf::14                     0                       # What read queue length does an incoming req see
system.mem_ctrls0.rdQLenPdf::15                     0                       # What read queue length does an incoming req see
system.mem_ctrls0.rdQLenPdf::16                     0                       # What read queue length does an incoming req see
system.mem_ctrls0.rdQLenPdf::17                     0                       # What read queue length does an incoming req see
system.mem_ctrls0.rdQLenPdf::18                     0                       # What read queue length does an incoming req see
system.mem_ctrls0.rdQLenPdf::19                     0                       # What read queue length does an incoming req see
system.mem_ctrls0.rdQLenPdf::20                     0                       # What read queue length does an incoming req see
system.mem_ctrls0.rdQLenPdf::21                     0                       # What read queue length does an incoming req see
system.mem_ctrls0.rdQLenPdf::22                     0                       # What read queue length does an incoming req see
system.mem_ctrls0.rdQLenPdf::23                     0                       # What read queue length does an incoming req see
system.mem_ctrls0.rdQLenPdf::24                     0                       # What read queue length does an incoming req see
system.mem_ctrls0.rdQLenPdf::25                     0                       # What read queue length does an incoming req see
system.mem_ctrls0.rdQLenPdf::26                     0                       # What read queue length does an incoming req see
system.mem_ctrls0.rdQLenPdf::27                     0                       # What read queue length does an incoming req see
system.mem_ctrls0.rdQLenPdf::28                     0                       # What read queue length does an incoming req see
system.mem_ctrls0.rdQLenPdf::29                     0                       # What read queue length does an incoming req see
system.mem_ctrls0.rdQLenPdf::30                     0                       # What read queue length does an incoming req see
system.mem_ctrls0.rdQLenPdf::31                     0                       # What read queue length does an incoming req see
system.mem_ctrls0.wrQLenPdf::0                      2                       # What write queue length does an incoming req see
system.mem_ctrls0.wrQLenPdf::1                      2                       # What write queue length does an incoming req see
system.mem_ctrls0.wrQLenPdf::2                      2                       # What write queue length does an incoming req see
system.mem_ctrls0.wrQLenPdf::3                      2                       # What write queue length does an incoming req see
system.mem_ctrls0.wrQLenPdf::4                      2                       # What write queue length does an incoming req see
system.mem_ctrls0.wrQLenPdf::5                      2                       # What write queue length does an incoming req see
system.mem_ctrls0.wrQLenPdf::6                      2                       # What write queue length does an incoming req see
system.mem_ctrls0.wrQLenPdf::7                      2                       # What write queue length does an incoming req see
system.mem_ctrls0.wrQLenPdf::8                      2                       # What write queue length does an incoming req see
system.mem_ctrls0.wrQLenPdf::9                      2                       # What write queue length does an incoming req see
system.mem_ctrls0.wrQLenPdf::10                     2                       # What write queue length does an incoming req see
system.mem_ctrls0.wrQLenPdf::11                     2                       # What write queue length does an incoming req see
system.mem_ctrls0.wrQLenPdf::12                     2                       # What write queue length does an incoming req see
system.mem_ctrls0.wrQLenPdf::13                     2                       # What write queue length does an incoming req see
system.mem_ctrls0.wrQLenPdf::14                     2                       # What write queue length does an incoming req see
system.mem_ctrls0.wrQLenPdf::15                  5085                       # What write queue length does an incoming req see
system.mem_ctrls0.wrQLenPdf::16                  5233                       # What write queue length does an incoming req see
system.mem_ctrls0.wrQLenPdf::17                  7408                       # What write queue length does an incoming req see
system.mem_ctrls0.wrQLenPdf::18                  7500                       # What write queue length does an incoming req see
system.mem_ctrls0.wrQLenPdf::19                  7505                       # What write queue length does an incoming req see
system.mem_ctrls0.wrQLenPdf::20                  7514                       # What write queue length does an incoming req see
system.mem_ctrls0.wrQLenPdf::21                  7516                       # What write queue length does an incoming req see
system.mem_ctrls0.wrQLenPdf::22                  7507                       # What write queue length does an incoming req see
system.mem_ctrls0.wrQLenPdf::23                  7505                       # What write queue length does an incoming req see
system.mem_ctrls0.wrQLenPdf::24                  7508                       # What write queue length does an incoming req see
system.mem_ctrls0.wrQLenPdf::25                  7509                       # What write queue length does an incoming req see
system.mem_ctrls0.wrQLenPdf::26                  7514                       # What write queue length does an incoming req see
system.mem_ctrls0.wrQLenPdf::27                  7520                       # What write queue length does an incoming req see
system.mem_ctrls0.wrQLenPdf::28                  7506                       # What write queue length does an incoming req see
system.mem_ctrls0.wrQLenPdf::29                  7523                       # What write queue length does an incoming req see
system.mem_ctrls0.wrQLenPdf::30                  7545                       # What write queue length does an incoming req see
system.mem_ctrls0.wrQLenPdf::31                  7503                       # What write queue length does an incoming req see
system.mem_ctrls0.wrQLenPdf::32                  7501                       # What write queue length does an incoming req see
system.mem_ctrls0.wrQLenPdf::33                     2                       # What write queue length does an incoming req see
system.mem_ctrls0.wrQLenPdf::34                     0                       # What write queue length does an incoming req see
system.mem_ctrls0.wrQLenPdf::35                     0                       # What write queue length does an incoming req see
system.mem_ctrls0.wrQLenPdf::36                     0                       # What write queue length does an incoming req see
system.mem_ctrls0.wrQLenPdf::37                     0                       # What write queue length does an incoming req see
system.mem_ctrls0.wrQLenPdf::38                     0                       # What write queue length does an incoming req see
system.mem_ctrls0.wrQLenPdf::39                     0                       # What write queue length does an incoming req see
system.mem_ctrls0.wrQLenPdf::40                     0                       # What write queue length does an incoming req see
system.mem_ctrls0.wrQLenPdf::41                     0                       # What write queue length does an incoming req see
system.mem_ctrls0.wrQLenPdf::42                     0                       # What write queue length does an incoming req see
system.mem_ctrls0.wrQLenPdf::43                     0                       # What write queue length does an incoming req see
system.mem_ctrls0.wrQLenPdf::44                     0                       # What write queue length does an incoming req see
system.mem_ctrls0.wrQLenPdf::45                     0                       # What write queue length does an incoming req see
system.mem_ctrls0.wrQLenPdf::46                     0                       # What write queue length does an incoming req see
system.mem_ctrls0.wrQLenPdf::47                     0                       # What write queue length does an incoming req see
system.mem_ctrls0.wrQLenPdf::48                     0                       # What write queue length does an incoming req see
system.mem_ctrls0.wrQLenPdf::49                     0                       # What write queue length does an incoming req see
system.mem_ctrls0.wrQLenPdf::50                     0                       # What write queue length does an incoming req see
system.mem_ctrls0.wrQLenPdf::51                     0                       # What write queue length does an incoming req see
system.mem_ctrls0.wrQLenPdf::52                     0                       # What write queue length does an incoming req see
system.mem_ctrls0.wrQLenPdf::53                     0                       # What write queue length does an incoming req see
system.mem_ctrls0.wrQLenPdf::54                     0                       # What write queue length does an incoming req see
system.mem_ctrls0.wrQLenPdf::55                     0                       # What write queue length does an incoming req see
system.mem_ctrls0.wrQLenPdf::56                     0                       # What write queue length does an incoming req see
system.mem_ctrls0.wrQLenPdf::57                     0                       # What write queue length does an incoming req see
system.mem_ctrls0.wrQLenPdf::58                     0                       # What write queue length does an incoming req see
system.mem_ctrls0.wrQLenPdf::59                     0                       # What write queue length does an incoming req see
system.mem_ctrls0.wrQLenPdf::60                     0                       # What write queue length does an incoming req see
system.mem_ctrls0.wrQLenPdf::61                     0                       # What write queue length does an incoming req see
system.mem_ctrls0.wrQLenPdf::62                     0                       # What write queue length does an incoming req see
system.mem_ctrls0.wrQLenPdf::63                     0                       # What write queue length does an incoming req see
system.mem_ctrls0.bytesPerActivate::samples     45594780                       # Bytes accessed per row activation
system.mem_ctrls0.bytesPerActivate::mean    64.220849                       # Bytes accessed per row activation
system.mem_ctrls0.bytesPerActivate::gmean    64.124102                       # Bytes accessed per row activation
system.mem_ctrls0.bytesPerActivate::stdev     6.030785                       # Bytes accessed per row activation
system.mem_ctrls0.bytesPerActivate::0-127     45491930     99.77%     99.77% # Bytes accessed per row activation
system.mem_ctrls0.bytesPerActivate::128-255        90487      0.20%     99.97% # Bytes accessed per row activation
system.mem_ctrls0.bytesPerActivate::256-383         8736      0.02%     99.99% # Bytes accessed per row activation
system.mem_ctrls0.bytesPerActivate::384-511         2334      0.01%    100.00% # Bytes accessed per row activation
system.mem_ctrls0.bytesPerActivate::512-639          766      0.00%    100.00% # Bytes accessed per row activation
system.mem_ctrls0.bytesPerActivate::640-767          275      0.00%    100.00% # Bytes accessed per row activation
system.mem_ctrls0.bytesPerActivate::768-895          136      0.00%    100.00% # Bytes accessed per row activation
system.mem_ctrls0.bytesPerActivate::896-1023           61      0.00%    100.00% # Bytes accessed per row activation
system.mem_ctrls0.bytesPerActivate::1024-1151           55      0.00%    100.00% # Bytes accessed per row activation
system.mem_ctrls0.bytesPerActivate::total     45594780                       # Bytes accessed per row activation
system.mem_ctrls0.rdPerTurnAround::samples         7500                       # Reads before turning the bus around for writes
system.mem_ctrls0.rdPerTurnAround::mean   6077.887600                       # Reads before turning the bus around for writes
system.mem_ctrls0.rdPerTurnAround::gmean   149.682573                       # Reads before turning the bus around for writes
system.mem_ctrls0.rdPerTurnAround::stdev 79029.696030                       # Reads before turning the bus around for writes
system.mem_ctrls0.rdPerTurnAround::0-131071         7441     99.21%     99.21% # Reads before turning the bus around for writes
system.mem_ctrls0.rdPerTurnAround::131072-262143           30      0.40%     99.61% # Reads before turning the bus around for writes
system.mem_ctrls0.rdPerTurnAround::262144-393215            8      0.11%     99.72% # Reads before turning the bus around for writes
system.mem_ctrls0.rdPerTurnAround::393216-524287            7      0.09%     99.81% # Reads before turning the bus around for writes
system.mem_ctrls0.rdPerTurnAround::524288-655359            3      0.04%     99.85% # Reads before turning the bus around for writes
system.mem_ctrls0.rdPerTurnAround::655360-786431            2      0.03%     99.88% # Reads before turning the bus around for writes
system.mem_ctrls0.rdPerTurnAround::786432-917503            1      0.01%     99.89% # Reads before turning the bus around for writes
system.mem_ctrls0.rdPerTurnAround::917504-1.04858e+06            1      0.01%     99.91% # Reads before turning the bus around for writes
system.mem_ctrls0.rdPerTurnAround::1.04858e+06-1.17965e+06            1      0.01%     99.92% # Reads before turning the bus around for writes
system.mem_ctrls0.rdPerTurnAround::1.31072e+06-1.44179e+06            1      0.01%     99.93% # Reads before turning the bus around for writes
system.mem_ctrls0.rdPerTurnAround::1.44179e+06-1.57286e+06            1      0.01%     99.95% # Reads before turning the bus around for writes
system.mem_ctrls0.rdPerTurnAround::2.3593e+06-2.49037e+06            2      0.03%     99.97% # Reads before turning the bus around for writes
system.mem_ctrls0.rdPerTurnAround::3.01466e+06-3.14573e+06            1      0.01%     99.99% # Reads before turning the bus around for writes
system.mem_ctrls0.rdPerTurnAround::3.53894e+06-3.67002e+06            1      0.01%    100.00% # Reads before turning the bus around for writes
system.mem_ctrls0.rdPerTurnAround::total         7500                       # Reads before turning the bus around for writes
system.mem_ctrls0.wrPerTurnAround::samples         7500                       # Writes before turning the bus around for reads
system.mem_ctrls0.wrPerTurnAround::mean     17.389200                       # Writes before turning the bus around for reads
system.mem_ctrls0.wrPerTurnAround::gmean    17.363270                       # Writes before turning the bus around for reads
system.mem_ctrls0.wrPerTurnAround::stdev     0.938780                       # Writes before turning the bus around for reads
system.mem_ctrls0.wrPerTurnAround::16            2268     30.24%     30.24% # Writes before turning the bus around for reads
system.mem_ctrls0.wrPerTurnAround::17             139      1.85%     32.09% # Writes before turning the bus around for reads
system.mem_ctrls0.wrPerTurnAround::18            5014     66.85%     98.95% # Writes before turning the bus around for reads
system.mem_ctrls0.wrPerTurnAround::19              72      0.96%     99.91% # Writes before turning the bus around for reads
system.mem_ctrls0.wrPerTurnAround::20               6      0.08%     99.99% # Writes before turning the bus around for reads
system.mem_ctrls0.wrPerTurnAround::28               1      0.01%    100.00% # Writes before turning the bus around for reads
system.mem_ctrls0.wrPerTurnAround::total         7500                       # Writes before turning the bus around for reads
system.mem_ctrls0.totQLat                1356183047832                       # Total ticks spent queuing
system.mem_ctrls0.totMemAccLat           2211590016582                       # Total ticks spent from burst creation until serviced by the DRAM
system.mem_ctrls0.totBusLat              228108525000                       # Total ticks spent in databus transfers
system.mem_ctrls0.avgQLat                    29726.71                       # Average queueing delay per DRAM burst
system.mem_ctrls0.avgBusLat                   5000.00                       # Average bus latency per DRAM burst
system.mem_ctrls0.avgMemAccLat               48476.71                       # Average memory access latency per DRAM burst
system.mem_ctrls0.avgRdBW                      176.08                       # Average DRAM read bandwidth in MiByte/s
system.mem_ctrls0.avgWrBW                        0.50                       # Average achieved write bandwidth in MiByte/s
system.mem_ctrls0.avgRdBWSys                   176.11                       # Average system read bandwidth in MiByte/s
system.mem_ctrls0.avgWrBWSys                     0.50                       # Average system write bandwidth in MiByte/s
system.mem_ctrls0.peakBW                     12800.00                       # Theoretical peak bandwidth in MiByte/s
system.mem_ctrls0.busUtil                        1.38                       # Data bus utilization in percentage
system.mem_ctrls0.busUtilRead                    1.38                       # Data bus utilization in percentage for reads
system.mem_ctrls0.busUtilWrite                   0.00                       # Data bus utilization in percentage for writes
system.mem_ctrls0.avgRdQLen                      1.00                       # Average read queue length when enqueuing
system.mem_ctrls0.avgWrQLen                     24.79                       # Average write queue length when enqueuing
system.mem_ctrls0.readRowHits                  135373                       # Number of row buffer hits during reads
system.mem_ctrls0.writeRowHits                  21964                       # Number of row buffer hits during writes
system.mem_ctrls0.readRowHitRate                 0.30                       # Row buffer hit rate for reads
system.mem_ctrls0.writeRowHitRate               16.84                       # Row buffer hit rate for writes
system.mem_ctrls0.avgGap                    362369.44                       # Average gap between requests
system.mem_ctrls0.pageHitRate                    0.34                       # Row buffer hit rate, read and write combined
system.mem_ctrls0_0.actEnergy            163010062740                       # Energy for activate commands per rank (pJ)
system.mem_ctrls0_0.preEnergy             86641884120                       # Energy for precharge commands per rank (pJ)
system.mem_ctrls0_0.readEnergy           163101247680                       # Energy for read commands per rank (pJ)
system.mem_ctrls0_0.writeEnergy             348643800                       # Energy for write commands per rank (pJ)
system.mem_ctrls0_0.refreshEnergy        1309053510960.000244                       # Energy for refresh commands per rank (pJ)
system.mem_ctrls0_0.actBackEnergy        692414640390                       # Energy for active background per rank (pJ)
system.mem_ctrls0_0.preBackEnergy         29545240320                       # Energy for precharge background per rank (pJ)
system.mem_ctrls0_0.actPowerDownEnergy   6457471176000                       # Energy for active power-down per rank (pJ)
system.mem_ctrls0_0.prePowerDownEnergy   317072427840                       # Energy for precharge power-down per rank (pJ)
system.mem_ctrls0_0.selfRefreshEnergy       147994245                       # Energy for self refresh per rank (pJ)
system.mem_ctrls0_0.totalEnergy          9218807571045                       # Total energy per rank (pJ)
system.mem_ctrls0_0.averagePower           555.933578                       # Core power per rank (mW)
system.mem_ctrls0_0.totalIdleTime        14987758469496                       # Total Idle time Per DRAM Rank
system.mem_ctrls0_0.memoryStateTime::IDLE  12592037901                       # Time in different power states
system.mem_ctrls0_0.memoryStateTime::REF 553745908000                       # Time in different power states
system.mem_ctrls0_0.memoryStateTime::SREF    344197662                       # Time in different power states
system.mem_ctrls0_0.memoryStateTime::PRE_PDN 825993021001                       # Time in different power states
system.mem_ctrls0_0.memoryStateTime::ACT 1028472472995                       # Time in different power states
system.mem_ctrls0_0.memoryStateTime::ACT_PDN 14161422542335                       # Time in different power states
system.mem_ctrls0_1.actEnergy            162536716440                       # Energy for activate commands per rank (pJ)
system.mem_ctrls0_1.preEnergy             86390305980                       # Energy for precharge commands per rank (pJ)
system.mem_ctrls0_1.readEnergy           162637726020                       # Energy for read commands per rank (pJ)
system.mem_ctrls0_1.writeEnergy             332143380                       # Energy for write commands per rank (pJ)
system.mem_ctrls0_1.refreshEnergy        1309049208480.000244                       # Energy for refresh commands per rank (pJ)
system.mem_ctrls0_1.actBackEnergy        690712239630                       # Energy for active background per rank (pJ)
system.mem_ctrls0_1.preBackEnergy         29350103520                       # Energy for precharge background per rank (pJ)
system.mem_ctrls0_1.actPowerDownEnergy   6481370826270                       # Energy for active power-down per rank (pJ)
system.mem_ctrls0_1.prePowerDownEnergy   298567313280                       # Energy for precharge power-down per rank (pJ)
system.mem_ctrls0_1.selfRefreshEnergy       149952015                       # Energy for self refresh per rank (pJ)
system.mem_ctrls0_1.totalEnergy          9221097045645                       # Total energy per rank (pJ)
system.mem_ctrls0_1.averagePower           556.071643                       # Core power per rank (mW)
system.mem_ctrls0_1.totalIdleTime        14990842872295                       # Total Idle time Per DRAM Rank
system.mem_ctrls0_1.memoryStateTime::IDLE  12560078694                       # Time in different power states
system.mem_ctrls0_1.memoryStateTime::REF 553744058000                       # Time in different power states
system.mem_ctrls0_1.memoryStateTime::SREF    365093196                       # Time in different power states
system.mem_ctrls0_1.memoryStateTime::PRE_PDN 777879328835                       # Time in different power states
system.mem_ctrls0_1.memoryStateTime::ACT 1025422939675                       # Time in different power states
system.mem_ctrls0_1.memoryStateTime::ACT_PDN 14212598681494                       # Time in different power states
system.mem_ctrls1.pwrStateResidencyTicks::UNDEFINED 178664753342394                       # Cumulative time (in ticks) in various power states
system.mem_ctrls1.bytes_read::cpu.inst            128                       # Number of bytes read from this memory
system.mem_ctrls1.bytes_read::cpu.data             64                       # Number of bytes read from this memory
system.mem_ctrls1.bytes_read::switch_cpus.inst         1088                       # Number of bytes read from this memory
system.mem_ctrls1.bytes_read::switch_cpus.data   1949412352                       # Number of bytes read from this memory
system.mem_ctrls1.bytes_read::switch_cpus_1.inst          704                       # Number of bytes read from this memory
system.mem_ctrls1.bytes_read::switch_cpus_1.data    972463360                       # Number of bytes read from this memory
system.mem_ctrls1.bytes_read::total        2921877696                       # Number of bytes read from this memory
system.mem_ctrls1.bytes_inst_read::cpu.inst          128                       # Number of instructions bytes read from this memory
system.mem_ctrls1.bytes_inst_read::switch_cpus.inst         1088                       # Number of instructions bytes read from this memory
system.mem_ctrls1.bytes_inst_read::switch_cpus_1.inst          704                       # Number of instructions bytes read from this memory
system.mem_ctrls1.bytes_inst_read::total         1920                       # Number of instructions bytes read from this memory
system.mem_ctrls1.bytes_written::writebacks      8409536                       # Number of bytes written to this memory
system.mem_ctrls1.bytes_written::total        8409536                       # Number of bytes written to this memory
system.mem_ctrls1.num_reads::cpu.inst               2                       # Number of read requests responded to by this memory
system.mem_ctrls1.num_reads::cpu.data               1                       # Number of read requests responded to by this memory
system.mem_ctrls1.num_reads::switch_cpus.inst           17                       # Number of read requests responded to by this memory
system.mem_ctrls1.num_reads::switch_cpus.data     30459568                       # Number of read requests responded to by this memory
system.mem_ctrls1.num_reads::switch_cpus_1.inst           11                       # Number of read requests responded to by this memory
system.mem_ctrls1.num_reads::switch_cpus_1.data     15194740                       # Number of read requests responded to by this memory
system.mem_ctrls1.num_reads::total           45654339                       # Number of read requests responded to by this memory
system.mem_ctrls1.num_writes::writebacks       131399                       # Number of write requests responded to by this memory
system.mem_ctrls1.num_writes::total            131399                       # Number of write requests responded to by this memory
system.mem_ctrls1.bw_read::cpu.inst                 8                       # Total read bandwidth from this memory (bytes/s)
system.mem_ctrls1.bw_read::cpu.data                 4                       # Total read bandwidth from this memory (bytes/s)
system.mem_ctrls1.bw_read::switch_cpus.inst           66                       # Total read bandwidth from this memory (bytes/s)
system.mem_ctrls1.bw_read::switch_cpus.data    117557914                       # Total read bandwidth from this memory (bytes/s)
system.mem_ctrls1.bw_read::switch_cpus_1.inst           42                       # Total read bandwidth from this memory (bytes/s)
system.mem_ctrls1.bw_read::switch_cpus_1.data     58643705                       # Total read bandwidth from this memory (bytes/s)
system.mem_ctrls1.bw_read::total            176201739                       # Total read bandwidth from this memory (bytes/s)
system.mem_ctrls1.bw_inst_read::cpu.inst            8                       # Instruction read bandwidth from this memory (bytes/s)
system.mem_ctrls1.bw_inst_read::switch_cpus.inst           66                       # Instruction read bandwidth from this memory (bytes/s)
system.mem_ctrls1.bw_inst_read::switch_cpus_1.inst           42                       # Instruction read bandwidth from this memory (bytes/s)
system.mem_ctrls1.bw_inst_read::total             116                       # Instruction read bandwidth from this memory (bytes/s)
system.mem_ctrls1.bw_write::writebacks         507131                       # Write bandwidth from this memory (bytes/s)
system.mem_ctrls1.bw_write::total              507131                       # Write bandwidth from this memory (bytes/s)
system.mem_ctrls1.bw_total::writebacks         507131                       # Total bandwidth to/from this memory (bytes/s)
system.mem_ctrls1.bw_total::cpu.inst                8                       # Total bandwidth to/from this memory (bytes/s)
system.mem_ctrls1.bw_total::cpu.data                4                       # Total bandwidth to/from this memory (bytes/s)
system.mem_ctrls1.bw_total::switch_cpus.inst           66                       # Total bandwidth to/from this memory (bytes/s)
system.mem_ctrls1.bw_total::switch_cpus.data    117557914                       # Total bandwidth to/from this memory (bytes/s)
system.mem_ctrls1.bw_total::switch_cpus_1.inst           42                       # Total bandwidth to/from this memory (bytes/s)
system.mem_ctrls1.bw_total::switch_cpus_1.data     58643705                       # Total bandwidth to/from this memory (bytes/s)
system.mem_ctrls1.bw_total::total           176708870                       # Total bandwidth to/from this memory (bytes/s)
system.mem_ctrls1.readReqs                   45654339                       # Number of read requests accepted
system.mem_ctrls1.writeReqs                    131399                       # Number of write requests accepted
system.mem_ctrls1.readBursts                 45654339                       # Number of DRAM read bursts, including those serviced by the write queue
system.mem_ctrls1.writeBursts                  131399                       # Number of DRAM write bursts, including those merged in the write queue
system.mem_ctrls1.bytesReadDRAM            2921291072                       # Total number of bytes read from DRAM
system.mem_ctrls1.bytesReadWrQ                 586624                       # Total number of bytes read from write queue
system.mem_ctrls1.bytesWritten                8388416                       # Total number of bytes written to DRAM
system.mem_ctrls1.bytesReadSys             2921877696                       # Total read bytes from the system interface side
system.mem_ctrls1.bytesWrittenSys             8409536                       # Total written bytes from the system interface side
system.mem_ctrls1.servicedByWrQ                  9166                       # Number of DRAM read bursts serviced by the write queue
system.mem_ctrls1.mergedWrBursts                  298                       # Number of DRAM write bursts merged with an existing one
system.mem_ctrls1.neitherReadNorWriteReqs            0                       # Number of requests that are neither read nor write
system.mem_ctrls1.perBankRdBursts::0          2848718                       # Per bank write bursts
system.mem_ctrls1.perBankRdBursts::1          2849971                       # Per bank write bursts
system.mem_ctrls1.perBankRdBursts::2          2873987                       # Per bank write bursts
system.mem_ctrls1.perBankRdBursts::3          2863703                       # Per bank write bursts
system.mem_ctrls1.perBankRdBursts::4          2869858                       # Per bank write bursts
system.mem_ctrls1.perBankRdBursts::5          2859544                       # Per bank write bursts
system.mem_ctrls1.perBankRdBursts::6          2844977                       # Per bank write bursts
system.mem_ctrls1.perBankRdBursts::7          2856576                       # Per bank write bursts
system.mem_ctrls1.perBankRdBursts::8          2872630                       # Per bank write bursts
system.mem_ctrls1.perBankRdBursts::9          2839505                       # Per bank write bursts
system.mem_ctrls1.perBankRdBursts::10         2850398                       # Per bank write bursts
system.mem_ctrls1.perBankRdBursts::11         2857122                       # Per bank write bursts
system.mem_ctrls1.perBankRdBursts::12         2843742                       # Per bank write bursts
system.mem_ctrls1.perBankRdBursts::13         2844621                       # Per bank write bursts
system.mem_ctrls1.perBankRdBursts::14         2839142                       # Per bank write bursts
system.mem_ctrls1.perBankRdBursts::15         2830679                       # Per bank write bursts
system.mem_ctrls1.perBankWrBursts::0             7871                       # Per bank write bursts
system.mem_ctrls1.perBankWrBursts::1             7844                       # Per bank write bursts
system.mem_ctrls1.perBankWrBursts::2             7747                       # Per bank write bursts
system.mem_ctrls1.perBankWrBursts::3             9554                       # Per bank write bursts
system.mem_ctrls1.perBankWrBursts::4             9915                       # Per bank write bursts
system.mem_ctrls1.perBankWrBursts::5             7963                       # Per bank write bursts
system.mem_ctrls1.perBankWrBursts::6             7974                       # Per bank write bursts
system.mem_ctrls1.perBankWrBursts::7             8054                       # Per bank write bursts
system.mem_ctrls1.perBankWrBursts::8             8292                       # Per bank write bursts
system.mem_ctrls1.perBankWrBursts::9             7999                       # Per bank write bursts
system.mem_ctrls1.perBankWrBursts::10            8022                       # Per bank write bursts
system.mem_ctrls1.perBankWrBursts::11            8107                       # Per bank write bursts
system.mem_ctrls1.perBankWrBursts::12            7962                       # Per bank write bursts
system.mem_ctrls1.perBankWrBursts::13            8063                       # Per bank write bursts
system.mem_ctrls1.perBankWrBursts::14            7809                       # Per bank write bursts
system.mem_ctrls1.perBankWrBursts::15            7893                       # Per bank write bursts
system.mem_ctrls1.numRdRetry                        0                       # Number of times read queue was full causing retry
system.mem_ctrls1.numWrRetry                        0                       # Number of times write queue was full causing retry
system.mem_ctrls1.totGap                 16582570058106                       # Total gap between requests
system.mem_ctrls1.readPktSize::0                    0                       # Read request sizes (log2)
system.mem_ctrls1.readPktSize::1                    0                       # Read request sizes (log2)
system.mem_ctrls1.readPktSize::2                    0                       # Read request sizes (log2)
system.mem_ctrls1.readPktSize::3                    0                       # Read request sizes (log2)
system.mem_ctrls1.readPktSize::4                    0                       # Read request sizes (log2)
system.mem_ctrls1.readPktSize::5                    0                       # Read request sizes (log2)
system.mem_ctrls1.readPktSize::6             45654339                       # Read request sizes (log2)
system.mem_ctrls1.writePktSize::0                   0                       # Write request sizes (log2)
system.mem_ctrls1.writePktSize::1                   0                       # Write request sizes (log2)
system.mem_ctrls1.writePktSize::2                   0                       # Write request sizes (log2)
system.mem_ctrls1.writePktSize::3                   0                       # Write request sizes (log2)
system.mem_ctrls1.writePktSize::4                   0                       # Write request sizes (log2)
system.mem_ctrls1.writePktSize::5                   0                       # Write request sizes (log2)
system.mem_ctrls1.writePktSize::6              131399                       # Write request sizes (log2)
system.mem_ctrls1.rdQLenPdf::0               45607943                       # What read queue length does an incoming req see
system.mem_ctrls1.rdQLenPdf::1                  32699                       # What read queue length does an incoming req see
system.mem_ctrls1.rdQLenPdf::2                   4329                       # What read queue length does an incoming req see
system.mem_ctrls1.rdQLenPdf::3                    202                       # What read queue length does an incoming req see
system.mem_ctrls1.rdQLenPdf::4                      0                       # What read queue length does an incoming req see
system.mem_ctrls1.rdQLenPdf::5                      0                       # What read queue length does an incoming req see
system.mem_ctrls1.rdQLenPdf::6                      0                       # What read queue length does an incoming req see
system.mem_ctrls1.rdQLenPdf::7                      0                       # What read queue length does an incoming req see
system.mem_ctrls1.rdQLenPdf::8                      0                       # What read queue length does an incoming req see
system.mem_ctrls1.rdQLenPdf::9                      0                       # What read queue length does an incoming req see
system.mem_ctrls1.rdQLenPdf::10                     0                       # What read queue length does an incoming req see
system.mem_ctrls1.rdQLenPdf::11                     0                       # What read queue length does an incoming req see
system.mem_ctrls1.rdQLenPdf::12                     0                       # What read queue length does an incoming req see
system.mem_ctrls1.rdQLenPdf::13                     0                       # What read queue length does an incoming req see
system.mem_ctrls1.rdQLenPdf::14                     0                       # What read queue length does an incoming req see
system.mem_ctrls1.rdQLenPdf::15                     0                       # What read queue length does an incoming req see
system.mem_ctrls1.rdQLenPdf::16                     0                       # What read queue length does an incoming req see
system.mem_ctrls1.rdQLenPdf::17                     0                       # What read queue length does an incoming req see
system.mem_ctrls1.rdQLenPdf::18                     0                       # What read queue length does an incoming req see
system.mem_ctrls1.rdQLenPdf::19                     0                       # What read queue length does an incoming req see
system.mem_ctrls1.rdQLenPdf::20                     0                       # What read queue length does an incoming req see
system.mem_ctrls1.rdQLenPdf::21                     0                       # What read queue length does an incoming req see
system.mem_ctrls1.rdQLenPdf::22                     0                       # What read queue length does an incoming req see
system.mem_ctrls1.rdQLenPdf::23                     0                       # What read queue length does an incoming req see
system.mem_ctrls1.rdQLenPdf::24                     0                       # What read queue length does an incoming req see
system.mem_ctrls1.rdQLenPdf::25                     0                       # What read queue length does an incoming req see
system.mem_ctrls1.rdQLenPdf::26                     0                       # What read queue length does an incoming req see
system.mem_ctrls1.rdQLenPdf::27                     0                       # What read queue length does an incoming req see
system.mem_ctrls1.rdQLenPdf::28                     0                       # What read queue length does an incoming req see
system.mem_ctrls1.rdQLenPdf::29                     0                       # What read queue length does an incoming req see
system.mem_ctrls1.rdQLenPdf::30                     0                       # What read queue length does an incoming req see
system.mem_ctrls1.rdQLenPdf::31                     0                       # What read queue length does an incoming req see
system.mem_ctrls1.wrQLenPdf::0                      2                       # What write queue length does an incoming req see
system.mem_ctrls1.wrQLenPdf::1                      2                       # What write queue length does an incoming req see
system.mem_ctrls1.wrQLenPdf::2                      2                       # What write queue length does an incoming req see
system.mem_ctrls1.wrQLenPdf::3                      2                       # What write queue length does an incoming req see
system.mem_ctrls1.wrQLenPdf::4                      2                       # What write queue length does an incoming req see
system.mem_ctrls1.wrQLenPdf::5                      2                       # What write queue length does an incoming req see
system.mem_ctrls1.wrQLenPdf::6                      2                       # What write queue length does an incoming req see
system.mem_ctrls1.wrQLenPdf::7                      2                       # What write queue length does an incoming req see
system.mem_ctrls1.wrQLenPdf::8                      2                       # What write queue length does an incoming req see
system.mem_ctrls1.wrQLenPdf::9                      2                       # What write queue length does an incoming req see
system.mem_ctrls1.wrQLenPdf::10                     2                       # What write queue length does an incoming req see
system.mem_ctrls1.wrQLenPdf::11                     2                       # What write queue length does an incoming req see
system.mem_ctrls1.wrQLenPdf::12                     2                       # What write queue length does an incoming req see
system.mem_ctrls1.wrQLenPdf::13                     2                       # What write queue length does an incoming req see
system.mem_ctrls1.wrQLenPdf::14                     2                       # What write queue length does an incoming req see
system.mem_ctrls1.wrQLenPdf::15                  5036                       # What write queue length does an incoming req see
system.mem_ctrls1.wrQLenPdf::16                  5200                       # What write queue length does an incoming req see
system.mem_ctrls1.wrQLenPdf::17                  7425                       # What write queue length does an incoming req see
system.mem_ctrls1.wrQLenPdf::18                  7546                       # What write queue length does an incoming req see
system.mem_ctrls1.wrQLenPdf::19                  7561                       # What write queue length does an incoming req see
system.mem_ctrls1.wrQLenPdf::20                  7554                       # What write queue length does an incoming req see
system.mem_ctrls1.wrQLenPdf::21                  7555                       # What write queue length does an incoming req see
system.mem_ctrls1.wrQLenPdf::22                  7550                       # What write queue length does an incoming req see
system.mem_ctrls1.wrQLenPdf::23                  7556                       # What write queue length does an incoming req see
system.mem_ctrls1.wrQLenPdf::24                  7558                       # What write queue length does an incoming req see
system.mem_ctrls1.wrQLenPdf::25                  7561                       # What write queue length does an incoming req see
system.mem_ctrls1.wrQLenPdf::26                  7567                       # What write queue length does an incoming req see
system.mem_ctrls1.wrQLenPdf::27                  7565                       # What write queue length does an incoming req see
system.mem_ctrls1.wrQLenPdf::28                  7560                       # What write queue length does an incoming req see
system.mem_ctrls1.wrQLenPdf::29                  7569                       # What write queue length does an incoming req see
system.mem_ctrls1.wrQLenPdf::30                  7611                       # What write queue length does an incoming req see
system.mem_ctrls1.wrQLenPdf::31                  7547                       # What write queue length does an incoming req see
system.mem_ctrls1.wrQLenPdf::32                  7548                       # What write queue length does an incoming req see
system.mem_ctrls1.wrQLenPdf::33                     2                       # What write queue length does an incoming req see
system.mem_ctrls1.wrQLenPdf::34                     0                       # What write queue length does an incoming req see
system.mem_ctrls1.wrQLenPdf::35                     0                       # What write queue length does an incoming req see
system.mem_ctrls1.wrQLenPdf::36                     0                       # What write queue length does an incoming req see
system.mem_ctrls1.wrQLenPdf::37                     0                       # What write queue length does an incoming req see
system.mem_ctrls1.wrQLenPdf::38                     0                       # What write queue length does an incoming req see
system.mem_ctrls1.wrQLenPdf::39                     0                       # What write queue length does an incoming req see
system.mem_ctrls1.wrQLenPdf::40                     0                       # What write queue length does an incoming req see
system.mem_ctrls1.wrQLenPdf::41                     0                       # What write queue length does an incoming req see
system.mem_ctrls1.wrQLenPdf::42                     0                       # What write queue length does an incoming req see
system.mem_ctrls1.wrQLenPdf::43                     0                       # What write queue length does an incoming req see
system.mem_ctrls1.wrQLenPdf::44                     0                       # What write queue length does an incoming req see
system.mem_ctrls1.wrQLenPdf::45                     0                       # What write queue length does an incoming req see
system.mem_ctrls1.wrQLenPdf::46                     0                       # What write queue length does an incoming req see
system.mem_ctrls1.wrQLenPdf::47                     0                       # What write queue length does an incoming req see
system.mem_ctrls1.wrQLenPdf::48                     0                       # What write queue length does an incoming req see
system.mem_ctrls1.wrQLenPdf::49                     0                       # What write queue length does an incoming req see
system.mem_ctrls1.wrQLenPdf::50                     0                       # What write queue length does an incoming req see
system.mem_ctrls1.wrQLenPdf::51                     0                       # What write queue length does an incoming req see
system.mem_ctrls1.wrQLenPdf::52                     0                       # What write queue length does an incoming req see
system.mem_ctrls1.wrQLenPdf::53                     0                       # What write queue length does an incoming req see
system.mem_ctrls1.wrQLenPdf::54                     0                       # What write queue length does an incoming req see
system.mem_ctrls1.wrQLenPdf::55                     0                       # What write queue length does an incoming req see
system.mem_ctrls1.wrQLenPdf::56                     0                       # What write queue length does an incoming req see
system.mem_ctrls1.wrQLenPdf::57                     0                       # What write queue length does an incoming req see
system.mem_ctrls1.wrQLenPdf::58                     0                       # What write queue length does an incoming req see
system.mem_ctrls1.wrQLenPdf::59                     0                       # What write queue length does an incoming req see
system.mem_ctrls1.wrQLenPdf::60                     0                       # What write queue length does an incoming req see
system.mem_ctrls1.wrQLenPdf::61                     0                       # What write queue length does an incoming req see
system.mem_ctrls1.wrQLenPdf::62                     0                       # What write queue length does an incoming req see
system.mem_ctrls1.wrQLenPdf::63                     0                       # What write queue length does an incoming req see
system.mem_ctrls1.bytesPerActivate::samples     45618175                       # Bytes accessed per row activation
system.mem_ctrls1.bytesPerActivate::mean    64.221752                       # Bytes accessed per row activation
system.mem_ctrls1.bytesPerActivate::gmean    64.124604                       # Bytes accessed per row activation
system.mem_ctrls1.bytesPerActivate::stdev     6.020902                       # Bytes accessed per row activation
system.mem_ctrls1.bytesPerActivate::0-127     45515010     99.77%     99.77% # Bytes accessed per row activation
system.mem_ctrls1.bytesPerActivate::128-255        90717      0.20%     99.97% # Bytes accessed per row activation
system.mem_ctrls1.bytesPerActivate::256-383         8793      0.02%     99.99% # Bytes accessed per row activation
system.mem_ctrls1.bytesPerActivate::384-511         2332      0.01%    100.00% # Bytes accessed per row activation
system.mem_ctrls1.bytesPerActivate::512-639          796      0.00%    100.00% # Bytes accessed per row activation
system.mem_ctrls1.bytesPerActivate::640-767          301      0.00%    100.00% # Bytes accessed per row activation
system.mem_ctrls1.bytesPerActivate::768-895          146      0.00%    100.00% # Bytes accessed per row activation
system.mem_ctrls1.bytesPerActivate::896-1023           56      0.00%    100.00% # Bytes accessed per row activation
system.mem_ctrls1.bytesPerActivate::1024-1151           24      0.00%    100.00% # Bytes accessed per row activation
system.mem_ctrls1.bytesPerActivate::total     45618175                       # Bytes accessed per row activation
system.mem_ctrls1.rdPerTurnAround::samples         7545                       # Reads before turning the bus around for writes
system.mem_ctrls1.rdPerTurnAround::mean   5984.185156                       # Reads before turning the bus around for writes
system.mem_ctrls1.rdPerTurnAround::gmean   153.196566                       # Reads before turning the bus around for writes
system.mem_ctrls1.rdPerTurnAround::stdev 71384.591176                       # Reads before turning the bus around for writes
system.mem_ctrls1.rdPerTurnAround::0-131071         7484     99.19%     99.19% # Reads before turning the bus around for writes
system.mem_ctrls1.rdPerTurnAround::131072-262143           28      0.37%     99.56% # Reads before turning the bus around for writes
system.mem_ctrls1.rdPerTurnAround::262144-393215           15      0.20%     99.76% # Reads before turning the bus around for writes
system.mem_ctrls1.rdPerTurnAround::393216-524287            5      0.07%     99.83% # Reads before turning the bus around for writes
system.mem_ctrls1.rdPerTurnAround::524288-655359            2      0.03%     99.85% # Reads before turning the bus around for writes
system.mem_ctrls1.rdPerTurnAround::786432-917503            1      0.01%     99.87% # Reads before turning the bus around for writes
system.mem_ctrls1.rdPerTurnAround::917504-1.04858e+06            1      0.01%     99.88% # Reads before turning the bus around for writes
system.mem_ctrls1.rdPerTurnAround::1.17965e+06-1.31072e+06            1      0.01%     99.89% # Reads before turning the bus around for writes
system.mem_ctrls1.rdPerTurnAround::1.31072e+06-1.44179e+06            2      0.03%     99.92% # Reads before turning the bus around for writes
system.mem_ctrls1.rdPerTurnAround::1.44179e+06-1.57286e+06            1      0.01%     99.93% # Reads before turning the bus around for writes
system.mem_ctrls1.rdPerTurnAround::1.57286e+06-1.70394e+06            1      0.01%     99.95% # Reads before turning the bus around for writes
system.mem_ctrls1.rdPerTurnAround::1.96608e+06-2.09715e+06            1      0.01%     99.96% # Reads before turning the bus around for writes
system.mem_ctrls1.rdPerTurnAround::2.09715e+06-2.22822e+06            1      0.01%     99.97% # Reads before turning the bus around for writes
system.mem_ctrls1.rdPerTurnAround::2.22822e+06-2.3593e+06            1      0.01%     99.99% # Reads before turning the bus around for writes
system.mem_ctrls1.rdPerTurnAround::2.88358e+06-3.01466e+06            1      0.01%    100.00% # Reads before turning the bus around for writes
system.mem_ctrls1.rdPerTurnAround::total         7545                       # Reads before turning the bus around for writes
system.mem_ctrls1.wrPerTurnAround::samples         7545                       # Writes before turning the bus around for reads
system.mem_ctrls1.wrPerTurnAround::mean     17.371637                       # Writes before turning the bus around for reads
system.mem_ctrls1.wrPerTurnAround::gmean    17.345192                       # Writes before turning the bus around for reads
system.mem_ctrls1.wrPerTurnAround::stdev     0.948986                       # Writes before turning the bus around for reads
system.mem_ctrls1.wrPerTurnAround::16            2345     31.08%     31.08% # Writes before turning the bus around for reads
system.mem_ctrls1.wrPerTurnAround::17             160      2.12%     33.20% # Writes before turning the bus around for reads
system.mem_ctrls1.wrPerTurnAround::18            4948     65.58%     98.78% # Writes before turning the bus around for reads
system.mem_ctrls1.wrPerTurnAround::19              84      1.11%     99.89% # Writes before turning the bus around for reads
system.mem_ctrls1.wrPerTurnAround::20               7      0.09%     99.99% # Writes before turning the bus around for reads
system.mem_ctrls1.wrPerTurnAround::29               1      0.01%    100.00% # Writes before turning the bus around for reads
system.mem_ctrls1.wrPerTurnAround::total         7545                       # Writes before turning the bus around for reads
system.mem_ctrls1.totQLat                1358593266778                       # Total ticks spent queuing
system.mem_ctrls1.totMemAccLat           2214440260528                       # Total ticks spent from burst creation until serviced by the DRAM
system.mem_ctrls1.totBusLat              228225865000                       # Total ticks spent in databus transfers
system.mem_ctrls1.avgQLat                    29764.23                       # Average queueing delay per DRAM burst
system.mem_ctrls1.avgBusLat                   5000.00                       # Average bus latency per DRAM burst
system.mem_ctrls1.avgMemAccLat               48514.23                       # Average memory access latency per DRAM burst
system.mem_ctrls1.avgRdBW                      176.17                       # Average DRAM read bandwidth in MiByte/s
system.mem_ctrls1.avgWrBW                        0.51                       # Average achieved write bandwidth in MiByte/s
system.mem_ctrls1.avgRdBWSys                   176.20                       # Average system read bandwidth in MiByte/s
system.mem_ctrls1.avgWrBWSys                     0.51                       # Average system write bandwidth in MiByte/s
system.mem_ctrls1.peakBW                     12800.00                       # Theoretical peak bandwidth in MiByte/s
system.mem_ctrls1.busUtil                        1.38                       # Data bus utilization in percentage
system.mem_ctrls1.busUtilRead                    1.38                       # Data bus utilization in percentage for reads
system.mem_ctrls1.busUtilWrite                   0.00                       # Data bus utilization in percentage for writes
system.mem_ctrls1.avgRdQLen                      1.00                       # Average read queue length when enqueuing
system.mem_ctrls1.avgWrQLen                     24.50                       # Average write queue length when enqueuing
system.mem_ctrls1.readRowHits                  135990                       # Number of row buffer hits during reads
system.mem_ctrls1.writeRowHits                  22071                       # Number of row buffer hits during writes
system.mem_ctrls1.readRowHitRate                 0.30                       # Row buffer hit rate for reads
system.mem_ctrls1.writeRowHitRate               16.84                       # Row buffer hit rate for writes
system.mem_ctrls1.avgGap                    362177.63                       # Average gap between requests
system.mem_ctrls1.pageHitRate                    0.35                       # Row buffer hit rate, read and write combined
system.mem_ctrls1_0.actEnergy            163181922540                       # Energy for activate commands per rank (pJ)
system.mem_ctrls1_0.preEnergy             86733233565                       # Energy for precharge commands per rank (pJ)
system.mem_ctrls1_0.readEnergy           163272764760                       # Energy for read commands per rank (pJ)
system.mem_ctrls1_0.writeEnergy             349332840                       # Energy for write commands per rank (pJ)
system.mem_ctrls1_0.refreshEnergy        1309055354880.000244                       # Energy for refresh commands per rank (pJ)
system.mem_ctrls1_0.actBackEnergy        692952137280                       # Energy for active background per rank (pJ)
system.mem_ctrls1_0.preBackEnergy         29570795040                       # Energy for precharge background per rank (pJ)
system.mem_ctrls1_0.actPowerDownEnergy   6472218042150                       # Energy for active power-down per rank (pJ)
system.mem_ctrls1_0.prePowerDownEnergy   304167910080                       # Energy for precharge power-down per rank (pJ)
system.mem_ctrls1_0.selfRefreshEnergy       156111960                       # Energy for self refresh per rank (pJ)
system.mem_ctrls1_0.totalEnergy          9221658123285                       # Total energy per rank (pJ)
system.mem_ctrls1_0.averagePower           556.105478                       # Core power per rank (mW)
system.mem_ctrls1_0.totalIdleTime        14986535303404                       # Total Idle time Per DRAM Rank
system.mem_ctrls1_0.memoryStateTime::IDLE  12582728422                       # Time in different power states
system.mem_ctrls1_0.memoryStateTime::REF 553746742000                       # Time in different power states
system.mem_ctrls1_0.memoryStateTime::SREF    365321617                       # Time in different power states
system.mem_ctrls1_0.memoryStateTime::PRE_PDN 791809425893                       # Time in different power states
system.mem_ctrls1_0.memoryStateTime::ACT 1029705337342                       # Time in different power states
system.mem_ctrls1_0.memoryStateTime::ACT_PDN 14194360624620                       # Time in different power states
system.mem_ctrls1_1.actEnergy            162531889800                       # Energy for activate commands per rank (pJ)
system.mem_ctrls1_1.preEnergy             86387740560                       # Energy for precharge commands per rank (pJ)
system.mem_ctrls1_1.readEnergy           162633770460                       # Energy for read commands per rank (pJ)
system.mem_ctrls1_1.writeEnergy             334847340                       # Energy for write commands per rank (pJ)
system.mem_ctrls1_1.refreshEnergy        1309047979200.000244                       # Energy for refresh commands per rank (pJ)
system.mem_ctrls1_1.actBackEnergy        690919982400                       # Energy for active background per rank (pJ)
system.mem_ctrls1_1.preBackEnergy         29356220160                       # Energy for precharge background per rank (pJ)
system.mem_ctrls1_1.actPowerDownEnergy   6486530926830                       # Energy for active power-down per rank (pJ)
system.mem_ctrls1_1.prePowerDownEnergy   294020754720                       # Energy for precharge power-down per rank (pJ)
system.mem_ctrls1_1.selfRefreshEnergy       165367725                       # Energy for self refresh per rank (pJ)
system.mem_ctrls1_1.totalEnergy          9221930280825                       # Total energy per rank (pJ)
system.mem_ctrls1_1.averagePower           556.121891                       # Core power per rank (mW)
system.mem_ctrls1_1.totalIdleTime        14991044325328                       # Total Idle time Per DRAM Rank
system.mem_ctrls1_1.memoryStateTime::IDLE  12563325812                       # Time in different power states
system.mem_ctrls1_1.memoryStateTime::REF 553743568000                       # Time in different power states
system.mem_ctrls1_1.memoryStateTime::SREF    416949140                       # Time in different power states
system.mem_ctrls1_1.memoryStateTime::PRE_PDN 766041963334                       # Time in different power states
system.mem_ctrls1_1.memoryStateTime::ACT 1025218027560                       # Time in different power states
system.mem_ctrls1_1.memoryStateTime::ACT_PDN 14224586346048                       # Time in different power states
system.pwrStateResidencyTicks::UNDEFINED 178664753342394                       # Cumulative time (in ticks) in various power states
system.cpu.branchPred.lookups                      14                       # Number of BP lookups
system.cpu.branchPred.condPredicted                14                       # Number of conditional branches predicted
system.cpu.branchPred.condIncorrect                 4                       # Number of conditional branches incorrect
system.cpu.branchPred.BTBLookups                    0                       # Number of BTB lookups
system.cpu.branchPred.BTBHits                       0                       # Number of BTB hits
system.cpu.branchPred.BTBCorrect                    0                       # Number of correct BTB predictions (this stat may not work properly.
system.cpu.branchPred.BTBHitPct                   nan                       # BTB Hit Percentage
system.cpu.branchPred.usedRAS                       0                       # Number of times the RAS was used to get a target.
system.cpu.branchPred.RASInCorrect                  0                       # Number of incorrect RAS predictions.
system.cpu.branchPred.indirectLookups               0                       # Number of indirect predictor lookups.
system.cpu.branchPred.indirectHits                  0                       # Number of indirect target hits.
system.cpu.branchPred.indirectMisses                0                       # Number of indirect misses.
system.cpu.branchPredindirectMispredicted            0                       # Number of mispredicted indirect branches.
system.cpu_voltage_domain.voltage                   1                       # Voltage in Volts
system.cpu_clk_domain.clock                       333                       # Clock period in ticks
system.cpu.dtb.fetch_hits                           0                       # ITB hits
system.cpu.dtb.fetch_misses                         0                       # ITB misses
system.cpu.dtb.fetch_acv                            0                       # ITB acv
system.cpu.dtb.fetch_accesses                       0                       # ITB accesses
system.cpu.dtb.read_hits                            1                       # DTB read hits
system.cpu.dtb.read_misses                         11                       # DTB read misses
system.cpu.dtb.read_acv                             0                       # DTB read access violations
system.cpu.dtb.read_accesses                       12                       # DTB read accesses
system.cpu.dtb.write_hits                           0                       # DTB write hits
system.cpu.dtb.write_misses                         0                       # DTB write misses
system.cpu.dtb.write_acv                            0                       # DTB write access violations
system.cpu.dtb.write_accesses                       0                       # DTB write accesses
system.cpu.dtb.data_hits                            1                       # DTB hits
system.cpu.dtb.data_misses                         11                       # DTB misses
system.cpu.dtb.data_acv                             0                       # DTB access violations
system.cpu.dtb.data_accesses                       12                       # DTB accesses
system.cpu.itb.fetch_hits                          13                       # ITB hits
system.cpu.itb.fetch_misses                         0                       # ITB misses
system.cpu.itb.fetch_acv                            0                       # ITB acv
system.cpu.itb.fetch_accesses                      13                       # ITB accesses
system.cpu.itb.read_hits                            0                       # DTB read hits
system.cpu.itb.read_misses                          0                       # DTB read misses
system.cpu.itb.read_acv                             0                       # DTB read access violations
system.cpu.itb.read_accesses                        0                       # DTB read accesses
system.cpu.itb.write_hits                           0                       # DTB write hits
system.cpu.itb.write_misses                         0                       # DTB write misses
system.cpu.itb.write_acv                            0                       # DTB write access violations
system.cpu.itb.write_accesses                       0                       # DTB write accesses
system.cpu.itb.data_hits                            0                       # DTB hits
system.cpu.itb.data_misses                          0                       # DTB misses
system.cpu.itb.data_acv                             0                       # DTB access violations
system.cpu.itb.data_accesses                        0                       # DTB accesses
system.cpu.workload.num_syscalls                    0                       # Number of system calls
[...]
system.switch_cpus_1.iq.rate                 0.262834                       # Inst issue rate
system.switch_cpus_1.iq.fu_busy_cnt            152561                       # FU busy when requested
system.switch_cpus_1.iq.fu_busy_rate         0.000033                       # FU busy rate (busy events/executed inst)
system.switch_cpus_1.iq.int_inst_queue_reads  26592667558                       # Number of integer instruction queue reads
system.switch_cpus_1.iq.int_inst_queue_writes  15566347903                       # Number of integer instruction queue writes
system.switch_cpus_1.iq.int_inst_queue_wakeup_accesses   2882934850                       # Number of integer instruction queue wakeup accesses
system.switch_cpus_1.iq.fp_inst_queue_reads          119                       # Number of floating instruction queue reads
system.switch_cpus_1.iq.fp_inst_queue_writes          110                       # Number of floating instruction queue writes
system.switch_cpus_1.iq.fp_inst_queue_wakeup_accesses           55                       # Number of floating instruction queue wakeup accesses
system.switch_cpus_1.iq.int_alu_accesses   4581368429                       # Number of integer alu accesses
system.switch_cpus_1.iq.fp_alu_accesses            64                       # Number of floating point alu accesses
system.switch_cpus_1.iew.lsq.thread0.forwLoads        45166                       # Number of loads that had data forwarded from stores
system.switch_cpus_1.iew.lsq.thread0.invAddrLoads            0                       # Number of loads ignored due to an invalid address
system.switch_cpus_1.iew.lsq.thread0.squashedLoads   2481707671                       # Number of loads squashed
system.switch_cpus_1.iew.lsq.thread0.ignoredResponses           74                       # Number of memory responses ignored because the instruction is squashed
system.switch_cpus_1.iew.lsq.thread0.memOrderViolation         3049                       # Number of memory ordering violations
system.switch_cpus_1.iew.lsq.thread0.squashedStores      1624024                       # Number of stores squashed
system.switch_cpus_1.iew.lsq.thread0.invAddrSwpfs            0                       # Number of software prefetches ignored due to an invalid address
system.switch_cpus_1.iew.lsq.thread0.blockedLoads            0                       # Number of blocked loads due to partial load-store forwarding
system.switch_cpus_1.iew.lsq.thread0.rescheduledLoads            5                       # Number of loads that were rescheduled
system.switch_cpus_1.iew.lsq.thread0.cacheBlocked       179364                       # Number of times an access to memory failed due to the cache being blocked
system.switch_cpus_1.iew.iewIdleCycles              0                       # Number of cycles IEW is idle
system.switch_cpus_1.iew.iewSquashCycles     82112434                       # Number of cycles IEW is squashing
system.switch_cpus_1.iew.iewBlockCycles   14595459547                       # Number of cycles IEW is blocking
system.switch_cpus_1.iew.iewUnblockCycles    122680799                       # Number of cycles IEW is unblocking
system.switch_cpus_1.iew.iewDispatchedInsts   8033572373                       # Number of instructions dispatched to IQ
system.switch_cpus_1.iew.iewDispSquashedInsts        21063                       # Number of squashed instructions skipped by dispatch
system.switch_cpus_1.iew.iewDispLoadInsts   2642265784                       # Number of dispatched load instructions
system.switch_cpus_1.iew.iewDispStoreInsts      2084020                       # Number of dispatched store instructions
system.switch_cpus_1.iew.iewDispNonSpecInsts            0                       # Number of dispatched non-speculative instructions
system.switch_cpus_1.iew.iewIQFullEvents     47996013                       # Number of times the IQ has become full, causing a stall
system.switch_cpus_1.iew.iewLSQFullEvents     30907156                       # Number of times the LSQ has become full, causing a stall
system.switch_cpus_1.iew.memOrderViolationEvents         3049                       # Number of memory order violations
system.switch_cpus_1.iew.predictedTakenIncorrect      4182580                       # Number of branches that were predicted taken incorrectly
system.switch_cpus_1.iew.predictedNotTakenIncorrect      6969525                       # Number of branches that were predicted not taken incorrectly
system.switch_cpus_1.iew.branchMispredicts     11152105                       # Number of branch mispredicts detected at execute
system.switch_cpus_1.iew.iewExecutedInsts   4570908897                       # Number of executed instructions
system.switch_cpus_1.iew.iewExecLoadInsts   1849700642                       # Number of load instructions executed
system.switch_cpus_1.iew.iewExecSquashedInsts     10307034                       # Number of squashed instructions skipped in execute
system.switch_cpus_1.iew.exec_swp                   0                       # number of swp insts executed
system.switch_cpus_1.iew.exec_nop              399842                       # number of nop insts executed
system.switch_cpus_1.iew.exec_refs         1850334615                       # number of memory reference insts executed
system.switch_cpus_1.iew.exec_branches      544380805                       # Number of branches executed
system.switch_cpus_1.iew.exec_stores           633973                       # Number of stores executed
system.switch_cpus_1.iew.exec_rate           0.262243                       # Inst execution rate
system.switch_cpus_1.iew.wb_sent           4568302737                       # cumulative count of insts sent to commit
system.switch_cpus_1.iew.wb_count          2882934905                       # cumulative count of insts written-back
system.switch_cpus_1.iew.wb_producers      1660383737                       # num instructions producing a value
system.switch_cpus_1.iew.wb_consumers      2287736983                       # num instructions consuming a value
system.switch_cpus_1.iew.wb_rate             0.165400                       # insts written-back per cycle
system.switch_cpus_1.iew.wb_fanout           0.725776                       # average fanout of values written-back
system.switch_cpus_1.commit.commitSquashedInsts   6962124357                       # The number of squashed insts skipped by commit
system.switch_cpus_1.commit.branchMispredicts     10674216                       # The number of times a branch was mispredicted
system.switch_cpus_1.commit.committed_per_cycle::samples  16528561971                       # Number of insts commited each cycle
system.switch_cpus_1.commit.committed_per_cycle::mean     0.030256                       # Number of insts commited each cycle
system.switch_cpus_1.commit.committed_per_cycle::stdev     0.327085                       # Number of insts commited each cycle
system.switch_cpus_1.commit.committed_per_cycle::underflows            0      0.00%      0.00% # Number of insts commited each cycle
system.switch_cpus_1.commit.committed_per_cycle::0  16273908002     98.46%     98.46% # Number of insts commited each cycle
system.switch_cpus_1.commit.committed_per_cycle::1    138243316      0.84%     99.30% # Number of insts commited each cycle
system.switch_cpus_1.commit.committed_per_cycle::2     79485432      0.48%     99.78% # Number of insts commited each cycle
system.switch_cpus_1.commit.committed_per_cycle::3     15070561      0.09%     99.87% # Number of insts commited each cycle
system.switch_cpus_1.commit.committed_per_cycle::4      4142491      0.03%     99.89% # Number of insts commited each cycle
system.switch_cpus_1.commit.committed_per_cycle::5       116400      0.00%     99.89% # Number of insts commited each cycle
system.switch_cpus_1.commit.committed_per_cycle::6        61791      0.00%     99.89% # Number of insts commited each cycle
system.switch_cpus_1.commit.committed_per_cycle::7       131713      0.00%     99.89% # Number of insts commited each cycle
system.switch_cpus_1.commit.committed_per_cycle::8     17402265      0.11%    100.00% # Number of insts commited each cycle
system.switch_cpus_1.commit.committed_per_cycle::overflows            0      0.00%    100.00% # Number of insts commited each cycle
system.switch_cpus_1.commit.committed_per_cycle::min_value            0                       # Number of insts commited each cycle
system.switch_cpus_1.commit.committed_per_cycle::max_value            8                       # Number of insts commited each cycle
system.switch_cpus_1.commit.committed_per_cycle::total  16528561971                       # Number of insts commited each cycle
system.switch_cpus_1.commit.committedInsts    500088684                       # Number of instructions committed
system.switch_cpus_1.commit.committedOps    500088684                       # Number of ops (including micro ops) committed
system.switch_cpus_1.commit.swp_count               0                       # Number of s/w prefetches committed
system.switch_cpus_1.commit.refs            161018083                       # Number of memory references committed
system.switch_cpus_1.commit.loads           160558087                       # Number of loads committed
system.switch_cpus_1.commit.membars                 0                       # Number of memory barriers committed
system.switch_cpus_1.commit.branches        123982567                       # Number of branches committed
system.switch_cpus_1.commit.fp_insts                0                       # Number of committed floating point instructions.
system.switch_cpus_1.commit.int_insts       499857537                       # Number of committed integer instructions.
system.switch_cpus_1.commit.function_calls        11661                       # Number of function calls committed.
system.switch_cpus_1.commit.op_class_0::No_OpClass        88683      0.02%      0.02% # Class of committed instruction
system.switch_cpus_1.commit.op_class_0::IntAlu    338981412     67.78%     67.80% # Class of committed instruction
system.switch_cpus_1.commit.op_class_0::IntMult          506      0.00%     67.80% # Class of committed instruction
system.switch_cpus_1.commit.op_class_0::IntDiv            0      0.00%     67.80% # Class of committed instruction
system.switch_cpus_1.commit.op_class_0::FloatAdd            0      0.00%     67.80% # Class of committed instruction
system.switch_cpus_1.commit.op_class_0::FloatCmp            0      0.00%     67.80% # Class of committed instruction
system.switch_cpus_1.commit.op_class_0::FloatCvt            0      0.00%     67.80% # Class of committed instruction
system.switch_cpus_1.commit.op_class_0::FloatMult            0      0.00%     67.80% # Class of committed instruction
system.switch_cpus_1.commit.op_class_0::FloatMultAcc            0      0.00%     67.80% # Class of committed instruction
system.switch_cpus_1.commit.op_class_0::FloatDiv            0      0.00%     67.80% # Class of committed instruction
system.switch_cpus_1.commit.op_class_0::FloatMisc            0      0.00%     67.80% # Class of committed instruction
system.switch_cpus_1.commit.op_class_0::FloatSqrt            0      0.00%     67.80% # Class of committed instruction
system.switch_cpus_1.commit.op_class_0::SimdAdd            0      0.00%     67.80% # Class of committed instruction
system.switch_cpus_1.commit.op_class_0::SimdAddAcc            0      0.00%     67.80% # Class of committed instruction
system.switch_cpus_1.commit.op_class_0::SimdAlu            0      0.00%     67.80% # Class of committed instruction
system.switch_cpus_1.commit.op_class_0::SimdCmp            0      0.00%     67.80% # Class of committed instruction
system.switch_cpus_1.commit.op_class_0::SimdCvt            0      0.00%     67.80% # Class of committed instruction
system.switch_cpus_1.commit.op_class_0::SimdMisc            0      0.00%     67.80% # Class of committed instruction
system.switch_cpus_1.commit.op_class_0::SimdMult            0      0.00%     67.80% # Class of committed instruction
system.switch_cpus_1.commit.op_class_0::SimdMultAcc            0      0.00%     67.80% # Class of committed instruction
system.switch_cpus_1.commit.op_class_0::SimdShift            0      0.00%     67.80% # Class of committed instruction
system.switch_cpus_1.commit.op_class_0::SimdShiftAcc            0      0.00%     67.80% # Class of committed instruction
system.switch_cpus_1.commit.op_class_0::SimdSqrt            0      0.00%     67.80% # Class of committed instruction
system.switch_cpus_1.commit.op_class_0::SimdFloatAdd            0      0.00%     67.80% # Class of committed instruction
system.switch_cpus_1.commit.op_class_0::SimdFloatAlu            0      0.00%     67.80% # Class of committed instruction
system.switch_cpus_1.commit.op_class_0::SimdFloatCmp            0      0.00%     67.80% # Class of committed instruction
system.switch_cpus_1.commit.op_class_0::SimdFloatCvt            0      0.00%     67.80% # Class of committed instruction
system.switch_cpus_1.commit.op_class_0::SimdFloatDiv            0      0.00%     67.80% # Class of committed instruction
system.switch_cpus_1.commit.op_class_0::SimdFloatMisc            0      0.00%     67.80% # Class of committed instruction
system.switch_cpus_1.commit.op_class_0::SimdFloatMult            0      0.00%     67.80% # Class of committed instruction
system.switch_cpus_1.commit.op_class_0::SimdFloatMultAcc            0      0.00%     67.80% # Class of committed instruction
system.switch_cpus_1.commit.op_class_0::SimdFloatSqrt            0      0.00%     67.80% # Class of committed instruction
system.switch_cpus_1.commit.op_class_0::MemRead    160558087     32.11%     99.91% # Class of committed instruction
system.switch_cpus_1.commit.op_class_0::MemWrite       459996      0.09%    100.00% # Class of committed instruction
system.switch_cpus_1.commit.op_class_0::FloatMemRead            0      0.00%    100.00% # Class of committed instruction
system.switch_cpus_1.commit.op_class_0::FloatMemWrite            0      0.00%    100.00% # Class of committed instruction
system.switch_cpus_1.commit.op_class_0::IprAccess            0      0.00%    100.00% # Class of committed instruction
system.switch_cpus_1.commit.op_class_0::InstPrefetch            0      0.00%    100.00% # Class of committed instruction
system.switch_cpus_1.commit.op_class_0::total    500088684                       # Class of committed instruction
system.switch_cpus_1.commit.bw_lim_events     17402265                       # number cycles where commit BW limit reached
system.switch_cpus_1.rob.rob_reads        23044714705                       # The number of ROB reads
system.switch_cpus_1.rob.rob_writes       15825941117                       # The number of ROB writes
system.switch_cpus_1.timesIdled                    17                       # Number of times that the entire CPU went into an idle state and unscheduled itself
system.switch_cpus_1.idleCycles                  1590                       # Total number of cycles that the CPU has spent unscheduled due to idling
system.switch_cpus_1.committedInsts         500000001                       # Number of Instructions Simulated
system.switch_cpus_1.committedOps           500000001                       # Number of Ops (including micro ops) Simulated
system.switch_cpus_1.cpi                    34.860155                       # CPI: Cycles Per Instruction
system.switch_cpus_1.cpi_total              34.860155                       # CPI: Total CPI of All Threads
system.switch_cpus_1.ipc                     0.028686                       # IPC: Instructions Per Cycle
system.switch_cpus_1.ipc_total               0.028686                       # IPC: Total IPC of All Threads
system.switch_cpus_1.int_regfile_reads     6715147875                       # number of integer regfile reads
system.switch_cpus_1.int_regfile_writes    2338121912                       # number of integer regfile writes
system.switch_cpus_1.fp_regfile_reads              55                       # number of floating regfile reads
system.switch_cpus_1.fp_regfile_writes             32                       # number of floating regfile writes
system.tol3bus.snoop_filter.tot_requests    355501948                       # Total number of requests made to the snoop filter.
system.tol3bus.snoop_filter.hit_single_requests    177749117                       # Number of requests hitting in the snoop filter with a single holder of the requested data.
system.tol3bus.snoop_filter.hit_multi_requests            0                       # Number of requests hitting in the snoop filter with multiple (>1) holders of the requested data.
system.tol3bus.snoop_filter.tot_snoops          49217                       # Total number of snoops made to the snoop filter.
system.tol3bus.snoop_filter.hit_single_snoops        49217                       # Number of snoops hitting in the snoop filter with a single holder of the requested data.
system.tol3bus.snoop_filter.hit_multi_snoops            0                       # Number of snoops hitting in the snoop filter with multiple (>1) holders of the requested data.
system.tol3bus.pwrStateResidencyTicks::UNDEFINED 178664753342394                       # Cumulative time (in ticks) in various power states
system.tol3bus.trans_dist::ReadResp         177725530                       # Transaction distribution
system.tol3bus.trans_dist::WritebackDirty      6403174                       # Transaction distribution
system.tol3bus.trans_dist::CleanEvict       262566142                       # Transaction distribution
system.tol3bus.trans_dist::ReadExReq            27301                       # Transaction distribution
system.tol3bus.trans_dist::ReadExResp           27301                       # Transaction distribution
system.tol3bus.trans_dist::ReadSharedReq    177725530                       # Transaction distribution
system.tol3bus.pkt_count_system.cpu.l2.mem_side::system.l3.cpu_side    533254779                       # Packet count per connected master and slave (bytes)
system.tol3bus.pkt_size_system.cpu.l2.mem_side::system.l3.cpu_side  11769205184                       # Cumulative packet size per connected master and slave (bytes)
system.tol3bus.snoops                        91220199                       # Total snoops (count)
system.tol3bus.snoopTraffic                  16779136                       # Total snoop traffic (bytes)
system.tol3bus.snoop_fanout::samples        268973030                       # Request fanout histogram
system.tol3bus.snoop_fanout::mean            0.000183                       # Request fanout histogram
system.tol3bus.snoop_fanout::stdev           0.013526                       # Request fanout histogram
system.tol3bus.snoop_fanout::underflows             0      0.00%      0.00% # Request fanout histogram
system.tol3bus.snoop_fanout::0              268923813     99.98%     99.98% # Request fanout histogram
system.tol3bus.snoop_fanout::1                  49217      0.02%    100.00% # Request fanout histogram
system.tol3bus.snoop_fanout::overflows              0      0.00%    100.00% # Request fanout histogram
system.tol3bus.snoop_fanout::min_value              0                       # Request fanout histogram
system.tol3bus.snoop_fanout::max_value              1                       # Request fanout histogram
system.tol3bus.snoop_fanout::total          268973030                       # Request fanout histogram
system.tol3bus.reqLayer0.occupancy       120427101684                       # Layer occupancy (ticks)
system.tol3bus.reqLayer0.utilization              0.7                       # Layer utilization (%)
system.tol3bus.respLayer0.occupancy      118383385446                       # Layer occupancy (ticks)
system.tol3bus.respLayer0.utilization             0.7                       # Layer utilization (%)

---------- End Simulation Statistics   ----------
