
---------- Begin Simulation Statistics ----------
sim_seconds                                  1.808184                       # Number of seconds simulated
sim_ticks                                1808184425580                       # Number of ticks simulated
final_tick                               35111562349941                       # Number of ticks from beginning of simulation (restored from checkpoints and never reset)
sim_freq                                 1000000000000                       # Frequency of simulated ticks
host_inst_rate                                 357692                       # Simulator instruction rate (inst/s)
host_op_rate                                   357692                       # Simulator op (including micro ops) rate (op/s)
host_tick_rate                              431181689                       # Simulator tick rate (ticks/s)
host_mem_usage                                2568208                       # Number of bytes of host memory used
host_seconds                                  4193.56                       # Real time elapsed on the host
sim_insts                                  1500000006                       # Number of instructions simulated
sim_ops                                    1500000006                       # Number of ops (including micro ops) simulated
system.voltage_domain.voltage                       1                       # Voltage in Volts
system.clk_domain.clock                          1000                       # Clock period in ticks
system.mem_ctrls0.pwrStateResidencyTicks::UNDEFINED 35111562349941                       # Cumulative time (in ticks) in various power states
system.mem_ctrls0.bytes_read::cpu.inst            128                       # Number of bytes read from this memory
system.mem_ctrls0.bytes_read::cpu.data            192                       # Number of bytes read from this memory
system.mem_ctrls0.bytes_read::switch_cpus.inst         8064                       # Number of bytes read from this memory
system.mem_ctrls0.bytes_read::switch_cpus.data     87136192                       # Number of bytes read from this memory
system.mem_ctrls0.bytes_read::switch_cpus_1.inst           64                       # Number of bytes read from this memory
system.mem_ctrls0.bytes_read::switch_cpus_1.data     43353536                       # Number of bytes read from this memory
system.mem_ctrls0.bytes_read::total         130498176                       # Number of bytes read from this memory
system.mem_ctrls0.bytes_inst_read::cpu.inst          128                       # Number of instructions bytes read from this memory
system.mem_ctrls0.bytes_inst_read::switch_cpus.inst         8064                       # Number of instructions bytes read from this memory
system.mem_ctrls0.bytes_inst_read::switch_cpus_1.inst           64                       # Number of instructions bytes read from this memory
system.mem_ctrls0.bytes_inst_read::total         8256                       # Number of instructions bytes read from this memory
system.mem_ctrls0.bytes_written::writebacks     43860288                       # Number of bytes written to this memory
system.mem_ctrls0.bytes_written::total       43860288                       # Number of bytes written to this memory
system.mem_ctrls0.num_reads::cpu.inst               2                       # Number of read requests responded to by this memory
system.mem_ctrls0.num_reads::cpu.data               3                       # Number of read requests responded to by this memory
system.mem_ctrls0.num_reads::switch_cpus.inst          126                       # Number of read requests responded to by this memory
system.mem_ctrls0.num_reads::switch_cpus.data      1361503                       # Number of read requests responded to by this memory
system.mem_ctrls0.num_reads::switch_cpus_1.inst            1                       # Number of read requests responded to by this memory
system.mem_ctrls0.num_reads::switch_cpus_1.data       677399                       # Number of read requests responded to by this memory
system.mem_ctrls0.num_reads::total            2039034                       # Number of read requests responded to by this memory
system.mem_ctrls0.num_writes::writebacks       685317                       # Number of write requests responded to by this memory
system.mem_ctrls0.num_writes::total            685317                       # Number of write requests responded to by this memory
system.mem_ctrls0.bw_read::cpu.inst                71                       # Total read bandwidth from this memory (bytes/s)
system.mem_ctrls0.bw_read::cpu.data               106                       # Total read bandwidth from this memory (bytes/s)
system.mem_ctrls0.bw_read::switch_cpus.inst         4460                       # Total read bandwidth from this memory (bytes/s)
system.mem_ctrls0.bw_read::switch_cpus.data     48189881                       # Total read bandwidth from this memory (bytes/s)
system.mem_ctrls0.bw_read::switch_cpus_1.inst           35                       # Total read bandwidth from this memory (bytes/s)
system.mem_ctrls0.bw_read::switch_cpus_1.data     23976280                       # Total read bandwidth from this memory (bytes/s)
system.mem_ctrls0.bw_read::total             72170833                       # Total read bandwidth from this memory (bytes/s)
system.mem_ctrls0.bw_inst_read::cpu.inst           71                       # Instruction read bandwidth from this memory (bytes/s)
system.mem_ctrls0.bw_inst_read::switch_cpus.inst         4460                       # Instruction read bandwidth from this memory (bytes/s)
system.mem_ctrls0.bw_inst_read::switch_cpus_1.inst           35                       # Instruction read bandwidth from this memory (bytes/s)
system.mem_ctrls0.bw_inst_read::total            4566                       # Instruction read bandwidth from this memory (bytes/s)
system.mem_ctrls0.bw_write::writebacks       24256535                       # Write bandwidth from this memory (bytes/s)
system.mem_ctrls0.bw_write::total            24256535                       # Write bandwidth from this memory (bytes/s)
system.mem_ctrls0.bw_total::writebacks       24256535                       # Total bandwidth to/from this memory (bytes/s)
system.mem_ctrls0.bw_total::cpu.inst               71                       # Total bandwidth to/from this memory (bytes/s)
system.mem_ctrls0.bw_total::cpu.data              106                       # Total bandwidth to/from this memory (bytes/s)
system.mem_ctrls0.bw_total::switch_cpus.inst         4460                       # Total bandwidth to/from this memory (bytes/s)
system.mem_ctrls0.bw_total::switch_cpus.data     48189881                       # Total bandwidth to/from this memory (bytes/s)
system.mem_ctrls0.bw_total::switch_cpus_1.inst           35                       # Total bandwidth to/from this memory (bytes/s)
system.mem_ctrls0.bw_total::switch_cpus_1.data     23976280                       # Total bandwidth to/from this memory (bytes/s)
system.mem_ctrls0.bw_total::total            96427367                       # Total bandwidth to/from this memory (bytes/s)
system.mem_ctrls0.readReqs                    2039035                       # Number of read requests accepted
system.mem_ctrls0.writeReqs                    685317                       # Number of write requests accepted
system.mem_ctrls0.readBursts                  2039035                       # Number of DRAM read bursts, including those serviced by the write queue
system.mem_ctrls0.writeBursts                  685317                       # Number of DRAM write bursts, including those merged in the write queue
system.mem_ctrls0.bytesReadDRAM             130483584                       # Total number of bytes read from DRAM
system.mem_ctrls0.bytesReadWrQ                  14656                       # Total number of bytes read from write queue
system.mem_ctrls0.bytesWritten               43858304                       # Total number of bytes written to DRAM
system.mem_ctrls0.bytesReadSys              130498240                       # Total read bytes from the system interface side
system.mem_ctrls0.bytesWrittenSys            43860288                       # Total written bytes from the system interface side
system.mem_ctrls0.servicedByWrQ                   229                       # Number of DRAM read bursts serviced by the write queue
system.mem_ctrls0.mergedWrBursts                    0                       # Number of DRAM write bursts merged with an existing one
system.mem_ctrls0.neitherReadNorWriteReqs            0                       # Number of requests that are neither read nor write
system.mem_ctrls0.perBankRdBursts::0           134405                       # Per bank write bursts
system.mem_ctrls0.perBankRdBursts::1           130633                       # Per bank write bursts
system.mem_ctrls0.perBankRdBursts::2           128838                       # Per bank write bursts
system.mem_ctrls0.perBankRdBursts::3           125424                       # Per bank write bursts
system.mem_ctrls0.perBankRdBursts::4           126196                       # Per bank write bursts
system.mem_ctrls0.perBankRdBursts::5           125933                       # Per bank write bursts
system.mem_ctrls0.perBankRdBursts::6           126028                       # Per bank write bursts
system.mem_ctrls0.perBankRdBursts::7           125012                       # Per bank write bursts
system.mem_ctrls0.perBankRdBursts::8           125088                       # Per bank write bursts
system.mem_ctrls0.perBankRdBursts::9           124504                       # Per bank write bursts
system.mem_ctrls0.perBankRdBursts::10          125668                       # Per bank write bursts
system.mem_ctrls0.perBankRdBursts::11          126571                       # Per bank write bursts
system.mem_ctrls0.perBankRdBursts::12          126362                       # Per bank write bursts
system.mem_ctrls0.perBankRdBursts::13          126531                       # Per bank write bursts
system.mem_ctrls0.perBankRdBursts::14          128834                       # Per bank write bursts
system.mem_ctrls0.perBankRdBursts::15          132779                       # Per bank write bursts
system.mem_ctrls0.perBankWrBursts::0            44858                       # Per bank write bursts
system.mem_ctrls0.perBankWrBursts::1            43647                       # Per bank write bursts
system.mem_ctrls0.perBankWrBursts::2            43309                       # Per bank write bursts
system.mem_ctrls0.perBankWrBursts::3            42389                       # Per bank write bursts
system.mem_ctrls0.perBankWrBursts::4            42169                       # Per bank write bursts
system.mem_ctrls0.perBankWrBursts::5            42134                       # Per bank write bursts
system.mem_ctrls0.perBankWrBursts::6            42150                       # Per bank write bursts
system.mem_ctrls0.perBankWrBursts::7            42393                       # Per bank write bursts
system.mem_ctrls0.perBankWrBursts::8            42375                       # Per bank write bursts
system.mem_ctrls0.perBankWrBursts::9            42209                       # Per bank write bursts
system.mem_ctrls0.perBankWrBursts::10           42191                       # Per bank write bursts
system.mem_ctrls0.perBankWrBursts::11           42276                       # Per bank write bursts
system.mem_ctrls0.perBankWrBursts::12           42909                       # Per bank write bursts
system.mem_ctrls0.perBankWrBursts::13           42900                       # Per bank write bursts
system.mem_ctrls0.perBankWrBursts::14           43144                       # Per bank write bursts
system.mem_ctrls0.perBankWrBursts::15           44233                       # Per bank write bursts
system.mem_ctrls0.numRdRetry                        0                       # Number of times read queue was full causing retry
system.mem_ctrls0.numWrRetry                        0                       # Number of times write queue was full causing retry
system.mem_ctrls0.totGap                 1808184408930                       # Total gap between requests
system.mem_ctrls0.readPktSize::0                    0                       # Read request sizes (log2)
system.mem_ctrls0.readPktSize::1                    0                       # Read request sizes (log2)
system.mem_ctrls0.readPktSize::2                    0                       # Read request sizes (log2)
system.mem_ctrls0.readPktSize::3                    0                       # Read request sizes (log2)
system.mem_ctrls0.readPktSize::4                    0                       # Read request sizes (log2)
system.mem_ctrls0.readPktSize::5                    0                       # Read request sizes (log2)
system.mem_ctrls0.readPktSize::6              2039035                       # Read request sizes (log2)
system.mem_ctrls0.writePktSize::0                   0                       # Write request sizes (log2)
system.mem_ctrls0.writePktSize::1                   0                       # Write request sizes (log2)
system.mem_ctrls0.writePktSize::2                   0                       # Write request sizes (log2)
system.mem_ctrls0.writePktSize::3                   0                       # Write request sizes (log2)
system.mem_ctrls0.writePktSize::4                   0                       # Write request sizes (log2)
system.mem_ctrls0.writePktSize::5                   0                       # Write request sizes (log2)
system.mem_ctrls0.writePktSize::6              685317                       # Write request sizes (log2)
system.mem_ctrls0.rdQLenPdf::0                1828495                       # What read queue length does an incoming req see
system.mem_ctrls0.rdQLenPdf::1                 187351                       # What read queue length does an incoming req see
system.mem_ctrls0.rdQLenPdf::2                  21852                       # What read queue length does an incoming req see
system.mem_ctrls0.rdQLenPdf::3                   1108                       # What read queue length does an incoming req see
system.mem_ctrls0.rdQLenPdf::4                      0                       # What read queue length does an incoming req see
system.mem_ctrls0.rdQLenPdf::5                      0                       # What read queue length does an incoming req see
system.mem_ctrls0.rdQLenPdf::6                      0                       # What read queue length does an incoming req see
system.mem_ctrls0.rdQLenPdf::7                      0                       # What read queue length does an incoming req see
system.mem_ctrls0.rdQLenPdf::8                      0                       # What read queue length does an incoming req see
system.mem_ctrls0.rdQLenPdf::9                      0                       # What read queue length does an incoming req see
system.mem_ctrls0.rdQLenPdf::10                     0                       # What read queue length does an incoming req see
system.mem_ctrls0.rdQLenPdf::11                     0                       # What read queue length does an incoming req see
system.mem_ctrls0.rdQLenPdf::12                     0                       # What read queue length does an incoming req see
system.mem_ctrls0.rdQLenPdf::13                     0                       # What read queue length does an incoming req see
system.mem_ctrls0.rdQLenPdf::14                     0                       # What read queue length does an incoming req see
system.mem_ctrls0.rdQLenPdf::15                     0                       # What read queue length does an incoming req see
system.mem_ctrls0.rdQLenPdf::16                     0                       # What read queue length does an incoming req see
system.mem_ctrls0.rdQLenPdf::17                     0                       # What read queue length does an incoming req see
system.mem_ctrls0.rdQLenPdf::18                     0                       # What read queue length does an incoming req see
system.mem_ctrls0.rdQLenPdf::19                     0                       # What read queue length does an incoming req see
system.mem_ctrls0.rdQLenPdf::20                     0                       # What read queue length does an incoming req see
system.mem_ctrls0.rdQLenPdf::21                     0                       # What read queue length does an incoming req see
system.mem_ctrls0.rdQLenPdf::22                     0                       # What read queue length does an incoming req see
system.mem_ctrls0.rdQLenPdf::23                     0                       # What read queue length does an incoming req see
system.mem_ctrls0.rdQLenPdf::24                     0                       # What read queue length does an incoming req see
system.mem_ctrls0.rdQLenPdf::25                     0                       # What read queue length does an incoming req see
system.mem_ctrls0.rdQLenPdf::26                     0                       # What read queue length does an incoming req see
system.mem_ctrls0.rdQLenPdf::27                     0                       # What read queue length does an incoming req see
system.mem_ctrls0.rdQLenPdf::28                     0                       # What read queue length does an incoming req see
system.mem_ctrls0.rdQLenPdf::29                     0                       # What read queue length does an incoming req see
system.mem_ctrls0.rdQLenPdf::30                     0                       # What read queue length does an incoming req see
system.mem_ctrls0.rdQLenPdf::31                     0                       # What read queue length does an incoming req see
system.mem_ctrls0.wrQLenPdf::0                      2                       # What write queue length does an incoming req see
system.mem_ctrls0.wrQLenPdf::1                      2                       # What write queue length does an incoming req see
system.mem_ctrls0.wrQLenPdf::2                      2                       # What write queue length does an incoming req see
system.mem_ctrls0.wrQLenPdf::3                      2                       # What write queue length does an incoming req see
system.mem_ctrls0.wrQLenPdf::4                      2                       # What write queue length does an incoming req see
system.mem_ctrls0.wrQLenPdf::5                      2                       # What write queue length does an incoming req see
system.mem_ctrls0.wrQLenPdf::6                      2                       # What write queue length does an incoming req see
system.mem_ctrls0.wrQLenPdf::7                      2                       # What write queue length does an incoming req see
system.mem_ctrls0.wrQLenPdf::8                      2                       # What write queue length does an incoming req see
system.mem_ctrls0.wrQLenPdf::9                      2                       # What write queue length does an incoming req see
system.mem_ctrls0.wrQLenPdf::10                     2                       # What write queue length does an incoming req see
system.mem_ctrls0.wrQLenPdf::11                     2                       # What write queue length does an incoming req see
system.mem_ctrls0.wrQLenPdf::12                     2                       # What write queue length does an incoming req see
system.mem_ctrls0.wrQLenPdf::13                     2                       # What write queue length does an incoming req see
system.mem_ctrls0.wrQLenPdf::14                     2                       # What write queue length does an incoming req see
system.mem_ctrls0.wrQLenPdf::15                 24145                       # What write queue length does an incoming req see
system.mem_ctrls0.wrQLenPdf::16                 25314                       # What write queue length does an incoming req see
system.mem_ctrls0.wrQLenPdf::17                 38016                       # What write queue length does an incoming req see
system.mem_ctrls0.wrQLenPdf::18                 39602                       # What write queue length does an incoming req see
system.mem_ctrls0.wrQLenPdf::19                 39788                       # What write queue length does an incoming req see
system.mem_ctrls0.wrQLenPdf::20                 39815                       # What write queue length does an incoming req see
system.mem_ctrls0.wrQLenPdf::21                 39861                       # What write queue length does an incoming req see
system.mem_ctrls0.wrQLenPdf::22                 40212                       # What write queue length does an incoming req see
system.mem_ctrls0.wrQLenPdf::23                 40093                       # What write queue length does an incoming req see
system.mem_ctrls0.wrQLenPdf::24                 39971                       # What write queue length does an incoming req see
system.mem_ctrls0.wrQLenPdf::25                 39925                       # What write queue length does an incoming req see
system.mem_ctrls0.wrQLenPdf::26                 39852                       # What write queue length does an incoming req see
system.mem_ctrls0.wrQLenPdf::27                 39822                       # What write queue length does an incoming req see
system.mem_ctrls0.wrQLenPdf::28                 39833                       # What write queue length does an incoming req see
system.mem_ctrls0.wrQLenPdf::29                 39795                       # What write queue length does an incoming req see
system.mem_ctrls0.wrQLenPdf::30                 39892                       # What write queue length does an incoming req see
system.mem_ctrls0.wrQLenPdf::31                 39639                       # What write queue length does an incoming req see
system.mem_ctrls0.wrQLenPdf::32                 39619                       # What write queue length does an incoming req see
system.mem_ctrls0.wrQLenPdf::33                    87                       # What write queue length does an incoming req see
system.mem_ctrls0.wrQLenPdf::34                     6                       # What write queue length does an incoming req see
system.mem_ctrls0.wrQLenPdf::35                     0                       # What write queue length does an incoming req see
system.mem_ctrls0.wrQLenPdf::36                     0                       # What write queue length does an incoming req see
system.mem_ctrls0.wrQLenPdf::37                     0                       # What write queue length does an incoming req see
system.mem_ctrls0.wrQLenPdf::38                     0                       # What write queue length does an incoming req see
system.mem_ctrls0.wrQLenPdf::39                     0                       # What write queue length does an incoming req see
system.mem_ctrls0.wrQLenPdf::40                     0                       # What write queue length does an incoming req see
system.mem_ctrls0.wrQLenPdf::41                     0                       # What write queue length does an incoming req see
system.mem_ctrls0.wrQLenPdf::42                     0                       # What write queue length does an incoming req see
system.mem_ctrls0.wrQLenPdf::43                     0                       # What write queue length does an incoming req see
system.mem_ctrls0.wrQLenPdf::44                     0                       # What write queue length does an incoming req see
system.mem_ctrls0.wrQLenPdf::45                     0                       # What write queue length does an incoming req see
system.mem_ctrls0.wrQLenPdf::46                     0                       # What write queue length does an incoming req see
system.mem_ctrls0.wrQLenPdf::47                     0                       # What write queue length does an incoming req see
system.mem_ctrls0.wrQLenPdf::48                     0                       # What write queue length does an incoming req see
system.mem_ctrls0.wrQLenPdf::49                     0                       # What write queue length does an incoming req see
system.mem_ctrls0.wrQLenPdf::50                     0                       # What write queue length does an incoming req see
system.mem_ctrls0.wrQLenPdf::51                     0                       # What write queue length does an incoming req see
system.mem_ctrls0.wrQLenPdf::52                     0                       # What write queue length does an incoming req see
system.mem_ctrls0.wrQLenPdf::53                     0                       # What write queue length does an incoming req see
system.mem_ctrls0.wrQLenPdf::54                     0                       # What write queue length does an incoming req see
system.mem_ctrls0.wrQLenPdf::55                     0                       # What write queue length does an incoming req see
system.mem_ctrls0.wrQLenPdf::56                     0                       # What write queue length does an incoming req see
system.mem_ctrls0.wrQLenPdf::57                     0                       # What write queue length does an incoming req see
system.mem_ctrls0.wrQLenPdf::58                     0                       # What write queue length does an incoming req see
system.mem_ctrls0.wrQLenPdf::59                     0                       # What write queue length does an incoming req see
system.mem_ctrls0.wrQLenPdf::60                     0                       # What write queue length does an incoming req see
system.mem_ctrls0.wrQLenPdf::61                     0                       # What write queue length does an incoming req see
system.mem_ctrls0.wrQLenPdf::62                     0                       # What write queue length does an incoming req see
system.mem_ctrls0.wrQLenPdf::63                     0                       # What write queue length does an incoming req see
system.mem_ctrls0.bytesPerActivate::samples      2413755                       # Bytes accessed per row activation
system.mem_ctrls0.bytesPerActivate::mean    72.228414                       # Bytes accessed per row activation
system.mem_ctrls0.bytesPerActivate::gmean    68.417222                       # Bytes accessed per row activation
system.mem_ctrls0.bytesPerActivate::stdev    38.283850                       # Bytes accessed per row activation
system.mem_ctrls0.bytesPerActivate::0-127      2246385     93.07%     93.07% # Bytes accessed per row activation
system.mem_ctrls0.bytesPerActivate::128-255       130368      5.40%     98.47% # Bytes accessed per row activation
system.mem_ctrls0.bytesPerActivate::256-383        26331      1.09%     99.56% # Bytes accessed per row activation
system.mem_ctrls0.bytesPerActivate::384-511         8332      0.35%     99.90% # Bytes accessed per row activation
system.mem_ctrls0.bytesPerActivate::512-639         1922      0.08%     99.98% # Bytes accessed per row activation
system.mem_ctrls0.bytesPerActivate::640-767          330      0.01%    100.00% # Bytes accessed per row activation
system.mem_ctrls0.bytesPerActivate::768-895           71      0.00%    100.00% # Bytes accessed per row activation
system.mem_ctrls0.bytesPerActivate::896-1023           10      0.00%    100.00% # Bytes accessed per row activation
system.mem_ctrls0.bytesPerActivate::1024-1151            6      0.00%    100.00% # Bytes accessed per row activation
system.mem_ctrls0.bytesPerActivate::total      2413755                       # Bytes accessed per row activation
system.mem_ctrls0.rdPerTurnAround::samples        39598                       # Reads before turning the bus around for writes
system.mem_ctrls0.rdPerTurnAround::mean     51.486338                       # Reads before turning the bus around for writes
system.mem_ctrls0.rdPerTurnAround::gmean    48.991095                       # Reads before turning the bus around for writes
system.mem_ctrls0.rdPerTurnAround::stdev   104.450716                       # Reads before turning the bus around for writes
system.mem_ctrls0.rdPerTurnAround::0-1023        39595     99.99%     99.99% # Reads before turning the bus around for writes
system.mem_ctrls0.rdPerTurnAround::1024-2047            1      0.00%     99.99% # Reads before turning the bus around for writes
system.mem_ctrls0.rdPerTurnAround::3072-4095            1      0.00%    100.00% # Reads before turning the bus around for writes
system.mem_ctrls0.rdPerTurnAround::19456-20479            1      0.00%    100.00% # Reads before turning the bus around for writes
system.mem_ctrls0.rdPerTurnAround::total        39598                       # Reads before turning the bus around for writes
system.mem_ctrls0.wrPerTurnAround::samples        39598                       # Writes before turning the bus around for reads
system.mem_ctrls0.wrPerTurnAround::mean     17.306076                       # Writes before turning the bus around for reads
system.mem_ctrls0.wrPerTurnAround::gmean    17.275519                       # Writes before turning the bus around for reads
system.mem_ctrls0.wrPerTurnAround::stdev     1.021505                       # Writes before turning the bus around for reads
system.mem_ctrls0.wrPerTurnAround::16           14237     35.95%     35.95% # Writes before turning the bus around for reads
system.mem_ctrls0.wrPerTurnAround::17            1062      2.68%     38.64% # Writes before turning the bus around for reads
system.mem_ctrls0.wrPerTurnAround::18           22377     56.51%     95.15% # Writes before turning the bus around for reads
system.mem_ctrls0.wrPerTurnAround::19            1799      4.54%     99.69% # Writes before turning the bus around for reads
system.mem_ctrls0.wrPerTurnAround::20             114      0.29%     99.98% # Writes before turning the bus around for reads
system.mem_ctrls0.wrPerTurnAround::21               8      0.02%    100.00% # Writes before turning the bus around for reads
system.mem_ctrls0.wrPerTurnAround::25               1      0.00%    100.00% # Writes before turning the bus around for reads
system.mem_ctrls0.wrPerTurnAround::total        39598                       # Writes before turning the bus around for reads
system.mem_ctrls0.totQLat                105902571354                       # Total ticks spent queuing
system.mem_ctrls0.totMemAccLat           144130183854                       # Total ticks spent from burst creation until serviced by the DRAM
system.mem_ctrls0.totBusLat               10194030000                       # Total ticks spent in databus transfers
system.mem_ctrls0.avgQLat                    51943.43                       # Average queueing delay per DRAM burst
system.mem_ctrls0.avgBusLat                   5000.00                       # Average bus latency per DRAM burst
system.mem_ctrls0.avgMemAccLat               70693.43                       # Average memory access latency per DRAM burst
system.mem_ctrls0.avgRdBW                       72.16                       # Average DRAM read bandwidth in MiByte/s
system.mem_ctrls0.avgWrBW                       24.26                       # Average achieved write bandwidth in MiByte/s
system.mem_ctrls0.avgRdBWSys                    72.17                       # Average system read bandwidth in MiByte/s
system.mem_ctrls0.avgWrBWSys                    24.26                       # Average system write bandwidth in MiByte/s
system.mem_ctrls0.peakBW                     12800.00                       # Theoretical peak bandwidth in MiByte/s
system.mem_ctrls0.busUtil                        0.75                       # Data bus utilization in percentage
system.mem_ctrls0.busUtilRead                    0.56                       # Data bus utilization in percentage for reads
system.mem_ctrls0.busUtilWrite                   0.19                       # Data bus utilization in percentage for writes
system.mem_ctrls0.avgRdQLen                      1.03                       # Average read queue length when enqueuing
system.mem_ctrls0.avgWrQLen                     24.36                       # Average write queue length when enqueuing
system.mem_ctrls0.readRowHits                   47567                       # Number of row buffer hits during reads
system.mem_ctrls0.writeRowHits                 262767                       # Number of row buffer hits during writes
system.mem_ctrls0.readRowHitRate                 2.33                       # Row buffer hit rate for reads
system.mem_ctrls0.writeRowHitRate               38.34                       # Row buffer hit rate for writes
system.mem_ctrls0.avgGap                    663711.74                       # Average gap between requests
system.mem_ctrls0.pageHitRate                   11.39                       # Row buffer hit rate, read and write combined
system.mem_ctrls0_0.actEnergy              8638200480                       # Energy for activate commands per rank (pJ)
system.mem_ctrls0_0.preEnergy              4591301055                       # Energy for precharge commands per rank (pJ)
system.mem_ctrls0_0.readEnergy             7300421520                       # Energy for read commands per rank (pJ)
system.mem_ctrls0_0.writeEnergy            1790715780                       # Energy for write commands per rank (pJ)
system.mem_ctrls0_0.refreshEnergy        142759974240.000031                       # Energy for refresh commands per rank (pJ)
system.mem_ctrls0_0.actBackEnergy         76215501420                       # Energy for active background per rank (pJ)
system.mem_ctrls0_0.preBackEnergy          7214612160                       # Energy for precharge background per rank (pJ)
system.mem_ctrls0_0.actPowerDownEnergy   401702452650                       # Energy for active power-down per rank (pJ)
system.mem_ctrls0_0.prePowerDownEnergy   190210154880                       # Energy for precharge power-down per rank (pJ)
system.mem_ctrls0_0.selfRefreshEnergy     77815106085                       # Energy for self refresh per rank (pJ)
system.mem_ctrls0_0.totalEnergy          918303898980                       # Total energy per rank (pJ)
system.mem_ctrls0_0.averagePower           507.859636                       # Core power per rank (mW)
system.mem_ctrls0_0.totalIdleTime        1622117407616                       # Total Idle time Per DRAM Rank
system.mem_ctrls0_0.memoryStateTime::IDLE   9987439418                       # Time in different power states
system.mem_ctrls0_0.memoryStateTime::REF  60599466000                       # Time in different power states
system.mem_ctrls0_0.memoryStateTime::SREF 245846018684                       # Time in different power states
system.mem_ctrls0_0.memoryStateTime::PRE_PDN 495338857679                       # Time in different power states
system.mem_ctrls0_0.memoryStateTime::ACT 115480112546                       # Time in different power states
system.mem_ctrls0_0.memoryStateTime::ACT_PDN 880932531253                       # Time in different power states
system.mem_ctrls0_1.actEnergy              8596024500                       # Energy for activate commands per rank (pJ)
system.mem_ctrls0_1.preEnergy              4568895375                       # Energy for precharge commands per rank (pJ)
system.mem_ctrls0_1.readEnergy             7256646180                       # Energy for read commands per rank (pJ)
system.mem_ctrls0_1.writeEnergy            1786477140                       # Energy for write commands per rank (pJ)
system.mem_ctrls0_1.refreshEnergy        145028610480.000031                       # Energy for refresh commands per rank (pJ)
system.mem_ctrls0_1.actBackEnergy         75377443530                       # Energy for active background per rank (pJ)
system.mem_ctrls0_1.preBackEnergy          6941452800                       # Energy for precharge background per rank (pJ)
system.mem_ctrls0_1.actPowerDownEnergy   418063518330                       # Energy for active power-down per rank (pJ)
system.mem_ctrls0_1.prePowerDownEnergy   193407323520                       # Energy for precharge power-down per rank (pJ)
system.mem_ctrls0_1.selfRefreshEnergy     66837371040                       # Energy for self refresh per rank (pJ)
system.mem_ctrls0_1.totalEnergy          927945488715                       # Total energy per rank (pJ)
system.mem_ctrls0_1.averagePower           513.191831                       # Core power per rank (mW)
system.mem_ctrls0_1.totalIdleTime        1624629444444                       # Total Idle time Per DRAM Rank
system.mem_ctrls0_1.memoryStateTime::IDLE   9569328855                       # Time in different power states
system.mem_ctrls0_1.memoryStateTime::REF  61549088000                       # Time in different power states
system.mem_ctrls0_1.memoryStateTime::SREF 204153545469                       # Time in different power states
system.mem_ctrls0_1.memoryStateTime::PRE_PDN 503663626267                       # Time in different power states
system.mem_ctrls0_1.memoryStateTime::ACT 112436364420                       # Time in different power states
system.mem_ctrls0_1.memoryStateTime::ACT_PDN 916812472569                       # Time in different power states
system.mem_ctrls1.pwrStateResidencyTicks::UNDEFINED 35111562349941                       # Cumulative time (in ticks) in various power states
system.mem_ctrls1.bytes_read::cpu.inst             64                       # Number of bytes read from this memory
system.mem_ctrls1.bytes_read::cpu.data            192                       # Number of bytes read from this memory
system.mem_ctrls1.bytes_read::switch_cpus.inst         8128                       # Number of bytes read from this memory
system.mem_ctrls1.bytes_read::switch_cpus.data     87080064                       # Number of bytes read from this memory
system.mem_ctrls1.bytes_read::switch_cpus_1.data     43303104                       # Number of bytes read from this memory
system.mem_ctrls1.bytes_read::total         130391552                       # Number of bytes read from this memory
system.mem_ctrls1.bytes_inst_read::cpu.inst           64                       # Number of instructions bytes read from this memory
system.mem_ctrls1.bytes_inst_read::switch_cpus.inst         8128                       # Number of instructions bytes read from this memory
system.mem_ctrls1.bytes_inst_read::total         8192                       # Number of instructions bytes read from this memory
system.mem_ctrls1.bytes_written::writebacks     43838848                       # Number of bytes written to this memory
system.mem_ctrls1.bytes_written::total       43838848                       # Number of bytes written to this memory
system.mem_ctrls1.num_reads::cpu.inst               1                       # Number of read requests responded to by this memory
system.mem_ctrls1.num_reads::cpu.data               3                       # Number of read requests responded to by this memory
system.mem_ctrls1.num_reads::switch_cpus.inst          127                       # Number of read requests responded to by this memory
system.mem_ctrls1.num_reads::switch_cpus.data      1360626                       # Number of read requests responded to by this memory
system.mem_ctrls1.num_reads::switch_cpus_1.data       676611                       # Number of read requests responded to by this memory
system.mem_ctrls1.num_reads::total            2037368                       # Number of read requests responded to by this memory
system.mem_ctrls1.num_writes::writebacks       684982                       # Number of write requests responded to by this memory
system.mem_ctrls1.num_writes::total            684982                       # Number of write requests responded to by this memory
system.mem_ctrls1.bw_read::cpu.inst                35                       # Total read bandwidth from this memory (bytes/s)
system.mem_ctrls1.bw_read::cpu.data               106                       # Total read bandwidth from this memory (bytes/s)
system.mem_ctrls1.bw_read::switch_cpus.inst         4495                       # Total read bandwidth from this memory (bytes/s)
system.mem_ctrls1.bw_read::switch_cpus.data     48158840                       # Total read bandwidth from this memory (bytes/s)
system.mem_ctrls1.bw_read::switch_cpus_1.data     23948389                       # Total read bandwidth from this memory (bytes/s)
system.mem_ctrls1.bw_read::total             72111865                       # Total read bandwidth from this memory (bytes/s)
system.mem_ctrls1.bw_inst_read::cpu.inst           35                       # Instruction read bandwidth from this memory (bytes/s)
system.mem_ctrls1.bw_inst_read::switch_cpus.inst         4495                       # Instruction read bandwidth from this memory (bytes/s)
system.mem_ctrls1.bw_inst_read::total            4531                       # Instruction read bandwidth from this memory (bytes/s)
system.mem_ctrls1.bw_write::writebacks       24244677                       # Write bandwidth from this memory (bytes/s)
system.mem_ctrls1.bw_write::total            24244677                       # Write bandwidth from this memory (bytes/s)
system.mem_ctrls1.bw_total::writebacks       24244677                       # Total bandwidth to/from this memory (bytes/s)
system.mem_ctrls1.bw_total::cpu.inst               35                       # Total bandwidth to/from this memory (bytes/s)
system.mem_ctrls1.bw_total::cpu.data              106                       # Total bandwidth to/from this memory (bytes/s)
system.mem_ctrls1.bw_total::switch_cpus.inst         4495                       # Total bandwidth to/from this memory (bytes/s)
system.mem_ctrls1.bw_total::switch_cpus.data     48158840                       # Total bandwidth to/from this memory (bytes/s)
system.mem_ctrls1.bw_total::switch_cpus_1.data     23948389                       # Total bandwidth to/from this memory (bytes/s)
system.mem_ctrls1.bw_total::total            96356543                       # Total bandwidth to/from this memory (bytes/s)
system.mem_ctrls1.readReqs                    2037368                       # Number of read requests accepted
system.mem_ctrls1.writeReqs                    684982                       # Number of write requests accepted
system.mem_ctrls1.readBursts                  2037368                       # Number of DRAM read bursts, including those serviced by the write queue
system.mem_ctrls1.writeBursts                  684982                       # Number of DRAM write bursts, including those merged in the write queue
system.mem_ctrls1.bytesReadDRAM             130374656                       # Total number of bytes read from DRAM
system.mem_ctrls1.bytesReadWrQ                  16896                       # Total number of bytes read from write queue
system.mem_ctrls1.bytesWritten               43837312                       # Total number of bytes written to DRAM
system.mem_ctrls1.bytesReadSys              130391552                       # Total read bytes from the system interface side
system.mem_ctrls1.bytesWrittenSys            43838848                       # Total written bytes from the system interface side
system.mem_ctrls1.servicedByWrQ                   264                       # Number of DRAM read bursts serviced by the write queue
system.mem_ctrls1.mergedWrBursts                    0                       # Number of DRAM write bursts merged with an existing one
system.mem_ctrls1.neitherReadNorWriteReqs            0                       # Number of requests that are neither read nor write
system.mem_ctrls1.perBankRdBursts::0           134504                       # Per bank write bursts
system.mem_ctrls1.perBankRdBursts::1           130662                       # Per bank write bursts
system.mem_ctrls1.perBankRdBursts::2           128660                       # Per bank write bursts
system.mem_ctrls1.perBankRdBursts::3           125208                       # Per bank write bursts
system.mem_ctrls1.perBankRdBursts::4           125705                       # Per bank write bursts
system.mem_ctrls1.perBankRdBursts::5           125825                       # Per bank write bursts
system.mem_ctrls1.perBankRdBursts::6           125949                       # Per bank write bursts
system.mem_ctrls1.perBankRdBursts::7           124917                       # Per bank write bursts
system.mem_ctrls1.perBankRdBursts::8           124974                       # Per bank write bursts
system.mem_ctrls1.perBankRdBursts::9           124420                       # Per bank write bursts
system.mem_ctrls1.perBankRdBursts::10          125703                       # Per bank write bursts
system.mem_ctrls1.perBankRdBursts::11          126279                       # Per bank write bursts
system.mem_ctrls1.perBankRdBursts::12          126283                       # Per bank write bursts
system.mem_ctrls1.perBankRdBursts::13          126393                       # Per bank write bursts
system.mem_ctrls1.perBankRdBursts::14          128804                       # Per bank write bursts
system.mem_ctrls1.perBankRdBursts::15          132818                       # Per bank write bursts
system.mem_ctrls1.perBankWrBursts::0            44904                       # Per bank write bursts
system.mem_ctrls1.perBankWrBursts::1            43675                       # Per bank write bursts
system.mem_ctrls1.perBankWrBursts::2            43244                       # Per bank write bursts
system.mem_ctrls1.perBankWrBursts::3            42310                       # Per bank write bursts
system.mem_ctrls1.perBankWrBursts::4            42105                       # Per bank write bursts
system.mem_ctrls1.perBankWrBursts::5            42093                       # Per bank write bursts
system.mem_ctrls1.perBankWrBursts::6            42116                       # Per bank write bursts
system.mem_ctrls1.perBankWrBursts::7            42353                       # Per bank write bursts
system.mem_ctrls1.perBankWrBursts::8            42369                       # Per bank write bursts
system.mem_ctrls1.perBankWrBursts::9            42159                       # Per bank write bursts
system.mem_ctrls1.perBankWrBursts::10           42225                       # Per bank write bursts
system.mem_ctrls1.perBankWrBursts::11           42255                       # Per bank write bursts
system.mem_ctrls1.perBankWrBursts::12           42889                       # Per bank write bursts
system.mem_ctrls1.perBankWrBursts::13           42868                       # Per bank write bursts
system.mem_ctrls1.perBankWrBursts::14           43191                       # Per bank write bursts
system.mem_ctrls1.perBankWrBursts::15           44202                       # Per bank write bursts
system.mem_ctrls1.numRdRetry                        0                       # Number of times read queue was full causing retry
system.mem_ctrls1.numWrRetry                        0                       # Number of times write queue was full causing retry
system.mem_ctrls1.totGap                 1808183900106                       # Total gap between requests
system.mem_ctrls1.readPktSize::0                    0                       # Read request sizes (log2)
system.mem_ctrls1.readPktSize::1                    0                       # Read request sizes (log2)
system.mem_ctrls1.readPktSize::2                    0                       # Read request sizes (log2)
system.mem_ctrls1.readPktSize::3                    0                       # Read request sizes (log2)
system.mem_ctrls1.readPktSize::4                    0                       # Read request sizes (log2)
system.mem_ctrls1.readPktSize::5                    0                       # Read request sizes (log2)
system.mem_ctrls1.readPktSize::6              2037368                       # Read request sizes (log2)
system.mem_ctrls1.writePktSize::0                   0                       # Write request sizes (log2)
system.mem_ctrls1.writePktSize::1                   0                       # Write request sizes (log2)
system.mem_ctrls1.writePktSize::2                   0                       # Write request sizes (log2)
system.mem_ctrls1.writePktSize::3                   0                       # Write request sizes (log2)
system.mem_ctrls1.writePktSize::4                   0                       # Write request sizes (log2)
system.mem_ctrls1.writePktSize::5                   0                       # Write request sizes (log2)
system.mem_ctrls1.writePktSize::6              684982                       # Write request sizes (log2)
system.mem_ctrls1.rdQLenPdf::0                1828016                       # What read queue length does an incoming req see
system.mem_ctrls1.rdQLenPdf::1                 186547                       # What read queue length does an incoming req see
system.mem_ctrls1.rdQLenPdf::2                  21452                       # What read queue length does an incoming req see
system.mem_ctrls1.rdQLenPdf::3                   1089                       # What read queue length does an incoming req see
system.mem_ctrls1.rdQLenPdf::4                      0                       # What read queue length does an incoming req see
system.mem_ctrls1.rdQLenPdf::5                      0                       # What read queue length does an incoming req see
system.mem_ctrls1.rdQLenPdf::6                      0                       # What read queue length does an incoming req see
system.mem_ctrls1.rdQLenPdf::7                      0                       # What read queue length does an incoming req see
system.mem_ctrls1.rdQLenPdf::8                      0                       # What read queue length does an incoming req see
system.mem_ctrls1.rdQLenPdf::9                      0                       # What read queue length does an incoming req see
system.mem_ctrls1.rdQLenPdf::10                     0                       # What read queue length does an incoming req see
system.mem_ctrls1.rdQLenPdf::11                     0                       # What read queue length does an incoming req see
system.mem_ctrls1.rdQLenPdf::12                     0                       # What read queue length does an incoming req see
system.mem_ctrls1.rdQLenPdf::13                     0                       # What read queue length does an incoming req see
system.mem_ctrls1.rdQLenPdf::14                     0                       # What read queue length does an incoming req see
system.mem_ctrls1.rdQLenPdf::15                     0                       # What read queue length does an incoming req see
system.mem_ctrls1.rdQLenPdf::16                     0                       # What read queue length does an incoming req see
system.mem_ctrls1.rdQLenPdf::17                     0                       # What read queue length does an incoming req see
system.mem_ctrls1.rdQLenPdf::18                     0                       # What read queue length does an incoming req see
system.mem_ctrls1.rdQLenPdf::19                     0                       # What read queue length does an incoming req see
system.mem_ctrls1.rdQLenPdf::20                     0                       # What read queue length does an incoming req see
system.mem_ctrls1.rdQLenPdf::21                     0                       # What read queue length does an incoming req see
system.mem_ctrls1.rdQLenPdf::22                     0                       # What read queue length does an incoming req see
system.mem_ctrls1.rdQLenPdf::23                     0                       # What read queue length does an incoming req see
system.mem_ctrls1.rdQLenPdf::24                     0                       # What read queue length does an incoming req see
system.mem_ctrls1.rdQLenPdf::25                     0                       # What read queue length does an incoming req see
system.mem_ctrls1.rdQLenPdf::26                     0                       # What read queue length does an incoming req see
system.mem_ctrls1.rdQLenPdf::27                     0                       # What read queue length does an incoming req see
system.mem_ctrls1.rdQLenPdf::28                     0                       # What read queue length does an incoming req see
system.mem_ctrls1.rdQLenPdf::29                     0                       # What read queue length does an incoming req see
system.mem_ctrls1.rdQLenPdf::30                     0                       # What read queue length does an incoming req see
system.mem_ctrls1.rdQLenPdf::31                     0                       # What read queue length does an incoming req see
system.mem_ctrls1.wrQLenPdf::0                      2                       # What write queue length does an incoming req see
system.mem_ctrls1.wrQLenPdf::1                      2                       # What write queue length does an incoming req see
system.mem_ctrls1.wrQLenPdf::2                      2                       # What write queue length does an incoming req see
system.mem_ctrls1.wrQLenPdf::3                      2                       # What write queue length does an incoming req see
system.mem_ctrls1.wrQLenPdf::4                      2                       # What write queue length does an incoming req see
system.mem_ctrls1.wrQLenPdf::5                      2                       # What write queue length does an incoming req see
system.mem_ctrls1.wrQLenPdf::6                      2                       # What write queue length does an incoming req see
system.mem_ctrls1.wrQLenPdf::7                      2                       # What write queue length does an incoming req see
system.mem_ctrls1.wrQLenPdf::8                      2                       # What write queue length does an incoming req see
system.mem_ctrls1.wrQLenPdf::9                      2                       # What write queue length does an incoming req see
system.mem_ctrls1.wrQLenPdf::10                     2                       # What write queue length does an incoming req see
system.mem_ctrls1.wrQLenPdf::11                     2                       # What write queue length does an incoming req see
system.mem_ctrls1.wrQLenPdf::12                     2                       # What write queue length does an incoming req see
system.mem_ctrls1.wrQLenPdf::13                     2                       # What write queue length does an incoming req see
system.mem_ctrls1.wrQLenPdf::14                     2                       # What write queue length does an incoming req see
system.mem_ctrls1.wrQLenPdf::15                 23857                       # What write queue length does an incoming req see
system.mem_ctrls1.wrQLenPdf::16                 25151                       # What write queue length does an incoming req see
system.mem_ctrls1.wrQLenPdf::17                 37959                       # What write queue length does an incoming req see
system.mem_ctrls1.wrQLenPdf::18                 39645                       # What write queue length does an incoming req see
system.mem_ctrls1.wrQLenPdf::19                 39795                       # What write queue length does an incoming req see
system.mem_ctrls1.wrQLenPdf::20                 39811                       # What write queue length does an incoming req see
system.mem_ctrls1.wrQLenPdf::21                 39898                       # What write queue length does an incoming req see
system.mem_ctrls1.wrQLenPdf::22                 40218                       # What write queue length does an incoming req see
system.mem_ctrls1.wrQLenPdf::23                 40123                       # What write queue length does an incoming req see
system.mem_ctrls1.wrQLenPdf::24                 39991                       # What write queue length does an incoming req see
system.mem_ctrls1.wrQLenPdf::25                 39895                       # What write queue length does an incoming req see
system.mem_ctrls1.wrQLenPdf::26                 39851                       # What write queue length does an incoming req see
system.mem_ctrls1.wrQLenPdf::27                 39842                       # What write queue length does an incoming req see
system.mem_ctrls1.wrQLenPdf::28                 39882                       # What write queue length does an incoming req see
system.mem_ctrls1.wrQLenPdf::29                 39807                       # What write queue length does an incoming req see
system.mem_ctrls1.wrQLenPdf::30                 39880                       # What write queue length does an incoming req see
system.mem_ctrls1.wrQLenPdf::31                 39636                       # What write queue length does an incoming req see
system.mem_ctrls1.wrQLenPdf::32                 39626                       # What write queue length does an incoming req see
system.mem_ctrls1.wrQLenPdf::33                    80                       # What write queue length does an incoming req see
system.mem_ctrls1.wrQLenPdf::34                     5                       # What write queue length does an incoming req see
system.mem_ctrls1.wrQLenPdf::35                     0                       # What write queue length does an incoming req see
system.mem_ctrls1.wrQLenPdf::36                     0                       # What write queue length does an incoming req see
system.mem_ctrls1.wrQLenPdf::37                     0                       # What write queue length does an incoming req see
system.mem_ctrls1.wrQLenPdf::38                     0                       # What write queue length does an incoming req see
system.mem_ctrls1.wrQLenPdf::39                     0                       # What write queue length does an incoming req see
system.mem_ctrls1.wrQLenPdf::40                     0                       # What write queue length does an incoming req see
system.mem_ctrls1.wrQLenPdf::41                     0                       # What write queue length does an incoming req see
system.mem_ctrls1.wrQLenPdf::42                     0                       # What write queue length does an incoming req see
system.mem_ctrls1.wrQLenPdf::43                     0                       # What write queue length does an incoming req see
system.mem_ctrls1.wrQLenPdf::44                     0                       # What write queue length does an incoming req see
system.mem_ctrls1.wrQLenPdf::45                     0                       # What write queue length does an incoming req see
system.mem_ctrls1.wrQLenPdf::46                     0                       # What write queue length does an incoming req see
system.mem_ctrls1.wrQLenPdf::47                     0                       # What write queue length does an incoming req see
system.mem_ctrls1.wrQLenPdf::48                     0                       # What write queue length does an incoming req see
system.mem_ctrls1.wrQLenPdf::49                     0                       # What write queue length does an incoming req see
system.mem_ctrls1.wrQLenPdf::50                     0                       # What write queue length does an incoming req see
system.mem_ctrls1.wrQLenPdf::51                     0                       # What write queue length does an incoming req see
system.mem_ctrls1.wrQLenPdf::52                     0                       # What write queue length does an incoming req see
system.mem_ctrls1.wrQLenPdf::53                     0                       # What write queue length does an incoming req see
system.mem_ctrls1.wrQLenPdf::54                     0                       # What write queue length does an incoming req see
system.mem_ctrls1.wrQLenPdf::55                     0                       # What write queue length does an incoming req see
system.mem_ctrls1.wrQLenPdf::56                     0                       # What write queue length does an incoming req see
system.mem_ctrls1.wrQLenPdf::57                     0                       # What write queue length does an incoming req see
system.mem_ctrls1.wrQLenPdf::58                     0                       # What write queue length does an incoming req see
system.mem_ctrls1.wrQLenPdf::59                     0                       # What write queue length does an incoming req see
system.mem_ctrls1.wrQLenPdf::60                     0                       # What write queue length does an incoming req see
system.mem_ctrls1.wrQLenPdf::61                     0                       # What write queue length does an incoming req see
system.mem_ctrls1.wrQLenPdf::62                     0                       # What write queue length does an incoming req see
system.mem_ctrls1.wrQLenPdf::63                     0                       # What write queue length does an incoming req see
system.mem_ctrls1.bytesPerActivate::samples      2413273                       # Bytes accessed per row activation
system.mem_ctrls1.bytesPerActivate::mean    72.188872                       # Bytes accessed per row activation
system.mem_ctrls1.bytesPerActivate::gmean    68.400775                       # Bytes accessed per row activation
system.mem_ctrls1.bytesPerActivate::stdev    38.117500                       # Bytes accessed per row activation
system.mem_ctrls1.bytesPerActivate::0-127      2246366     93.08%     93.08% # Bytes accessed per row activation
system.mem_ctrls1.bytesPerActivate::128-255       130316      5.40%     98.48% # Bytes accessed per row activation
system.mem_ctrls1.bytesPerActivate::256-383        26037      1.08%     99.56% # Bytes accessed per row activation
system.mem_ctrls1.bytesPerActivate::384-511         8281      0.34%     99.91% # Bytes accessed per row activation
system.mem_ctrls1.bytesPerActivate::512-639         1874      0.08%     99.98% # Bytes accessed per row activation
system.mem_ctrls1.bytesPerActivate::640-767          328      0.01%    100.00% # Bytes accessed per row activation
system.mem_ctrls1.bytesPerActivate::768-895           59      0.00%    100.00% # Bytes accessed per row activation
system.mem_ctrls1.bytesPerActivate::896-1023            9      0.00%    100.00% # Bytes accessed per row activation
system.mem_ctrls1.bytesPerActivate::1024-1151            3      0.00%    100.00% # Bytes accessed per row activation
system.mem_ctrls1.bytesPerActivate::total      2413273                       # Bytes accessed per row activation
system.mem_ctrls1.rdPerTurnAround::samples        39605                       # Reads before turning the bus around for writes
system.mem_ctrls1.rdPerTurnAround::mean     51.435172                       # Reads before turning the bus around for writes
system.mem_ctrls1.rdPerTurnAround::gmean    48.945774                       # Reads before turning the bus around for writes
system.mem_ctrls1.rdPerTurnAround::stdev   104.293851                       # Reads before turning the bus around for writes
system.mem_ctrls1.rdPerTurnAround::0-1023        39602     99.99%     99.99% # Reads before turning the bus around for writes
system.mem_ctrls1.rdPerTurnAround::1024-2047            1      0.00%     99.99% # Reads before turning the bus around for writes
system.mem_ctrls1.rdPerTurnAround::3072-4095            1      0.00%    100.00% # Reads before turning the bus around for writes
system.mem_ctrls1.rdPerTurnAround::19456-20479            1      0.00%    100.00% # Reads before turning the bus around for writes
system.mem_ctrls1.rdPerTurnAround::total        39605                       # Reads before turning the bus around for writes
system.mem_ctrls1.wrPerTurnAround::samples        39605                       # Writes before turning the bus around for reads
system.mem_ctrls1.wrPerTurnAround::mean     17.294736                       # Writes before turning the bus around for reads
system.mem_ctrls1.wrPerTurnAround::gmean    17.264053                       # Writes before turning the bus around for reads
system.mem_ctrls1.wrPerTurnAround::stdev     1.023590                       # Writes before turning the bus around for reads
system.mem_ctrls1.wrPerTurnAround::16           14426     36.42%     36.42% # Writes before turning the bus around for reads
system.mem_ctrls1.wrPerTurnAround::17            1141      2.88%     39.31% # Writes before turning the bus around for reads
system.mem_ctrls1.wrPerTurnAround::18           22114     55.84%     95.14% # Writes before turning the bus around for reads
system.mem_ctrls1.wrPerTurnAround::19            1794      4.53%     99.67% # Writes before turning the bus around for reads
system.mem_ctrls1.wrPerTurnAround::20             123      0.31%     99.98% # Writes before turning the bus around for reads
system.mem_ctrls1.wrPerTurnAround::21               7      0.02%    100.00% # Writes before turning the bus around for reads
system.mem_ctrls1.wrPerTurnAround::total        39605                       # Writes before turning the bus around for reads
system.mem_ctrls1.totQLat                106015246670                       # Total ticks spent queuing
system.mem_ctrls1.totMemAccLat           144210946670                       # Total ticks spent from burst creation until serviced by the DRAM
system.mem_ctrls1.totBusLat               10185520000                       # Total ticks spent in databus transfers
system.mem_ctrls1.avgQLat                    52042.14                       # Average queueing delay per DRAM burst
system.mem_ctrls1.avgBusLat                   5000.00                       # Average bus latency per DRAM burst
system.mem_ctrls1.avgMemAccLat               70792.14                       # Average memory access latency per DRAM burst
system.mem_ctrls1.avgRdBW                       72.10                       # Average DRAM read bandwidth in MiByte/s
system.mem_ctrls1.avgWrBW                       24.24                       # Average achieved write bandwidth in MiByte/s
system.mem_ctrls1.avgRdBWSys                    72.11                       # Average system read bandwidth in MiByte/s
system.mem_ctrls1.avgWrBWSys                    24.24                       # Average system write bandwidth in MiByte/s
system.mem_ctrls1.peakBW                     12800.00                       # Theoretical peak bandwidth in MiByte/s
system.mem_ctrls1.busUtil                        0.75                       # Data bus utilization in percentage
system.mem_ctrls1.busUtilRead                    0.56                       # Data bus utilization in percentage for reads
system.mem_ctrls1.busUtilWrite                   0.19                       # Data bus utilization in percentage for writes
system.mem_ctrls1.avgRdQLen                      1.03                       # Average read queue length when enqueuing
system.mem_ctrls1.avgWrQLen                     24.37                       # Average write queue length when enqueuing
system.mem_ctrls1.readRowHits                   47176                       # Number of row buffer hits during reads
system.mem_ctrls1.writeRowHits                 261607                       # Number of row buffer hits during writes
system.mem_ctrls1.readRowHitRate                 2.32                       # Row buffer hit rate for reads
system.mem_ctrls1.writeRowHitRate               38.19                       # Row buffer hit rate for writes
system.mem_ctrls1.avgGap                    664199.64                       # Average gap between requests
system.mem_ctrls1.pageHitRate                   11.34                       # Row buffer hit rate, read and write combined
system.mem_ctrls1_0.actEnergy              8633088240                       # Energy for activate commands per rank (pJ)
system.mem_ctrls1_0.preEnergy              4588583835                       # Energy for precharge commands per rank (pJ)
system.mem_ctrls1_0.readEnergy             7293010200                       # Energy for read commands per rank (pJ)
system.mem_ctrls1_0.writeEnergy            1789416000                       # Energy for write commands per rank (pJ)
system.mem_ctrls1_0.refreshEnergy        142702198080.000031                       # Energy for refresh commands per rank (pJ)
system.mem_ctrls1_0.actBackEnergy         76328308980                       # Energy for active background per rank (pJ)
system.mem_ctrls1_0.preBackEnergy          7209905280                       # Energy for precharge background per rank (pJ)
system.mem_ctrls1_0.actPowerDownEnergy   401528900760                       # Energy for active power-down per rank (pJ)
system.mem_ctrls1_0.prePowerDownEnergy   189888228480                       # Energy for precharge power-down per rank (pJ)
system.mem_ctrls1_0.selfRefreshEnergy     78070493730                       # Energy for self refresh per rank (pJ)
system.mem_ctrls1_0.totalEnergy          918100898865                       # Total energy per rank (pJ)
system.mem_ctrls1_0.averagePower           507.747370                       # Core power per rank (mW)
system.mem_ctrls1_0.totalIdleTime        1621861262957                       # Total Idle time Per DRAM Rank
system.mem_ctrls1_0.memoryStateTime::IDLE   9970779699                       # Time in different power states
system.mem_ctrls1_0.memoryStateTime::REF  60575026000                       # Time in different power states
system.mem_ctrls1_0.memoryStateTime::SREF 246822532930                       # Time in different power states
system.mem_ctrls1_0.memoryStateTime::PRE_PDN 494498653397                       # Time in different power states
system.mem_ctrls1_0.memoryStateTime::ACT 115777210373                       # Time in different power states
system.mem_ctrls1_0.memoryStateTime::ACT_PDN 880540223181                       # Time in different power states
system.mem_ctrls1_1.actEnergy              8597723820                       # Energy for activate commands per rank (pJ)
system.mem_ctrls1_1.preEnergy              4569787200                       # Energy for precharge commands per rank (pJ)
system.mem_ctrls1_1.readEnergy             7251912360                       # Energy for read commands per rank (pJ)
system.mem_ctrls1_1.writeEnergy            1786064760                       # Energy for write commands per rank (pJ)
system.mem_ctrls1_1.refreshEnergy        144952395120.000031                       # Energy for refresh commands per rank (pJ)
system.mem_ctrls1_1.actBackEnergy         75419398950                       # Energy for active background per rank (pJ)
system.mem_ctrls1_1.preBackEnergy          6932216640                       # Energy for precharge background per rank (pJ)
system.mem_ctrls1_1.actPowerDownEnergy   417664368420                       # Energy for active power-down per rank (pJ)
system.mem_ctrls1_1.prePowerDownEnergy   193542796800                       # Energy for precharge power-down per rank (pJ)
system.mem_ctrls1_1.selfRefreshEnergy     66906965940                       # Energy for self refresh per rank (pJ)
system.mem_ctrls1_1.totalEnergy          927703130430                       # Total energy per rank (pJ)
system.mem_ctrls1_1.averagePower           513.057794                       # Core power per rank (mW)
system.mem_ctrls1_1.totalIdleTime        1624567498959                       # Total Idle time Per DRAM Rank
system.mem_ctrls1_1.memoryStateTime::IDLE   9541642353                       # Time in different power states
system.mem_ctrls1_1.memoryStateTime::REF  61516572000                       # Time in different power states
system.mem_ctrls1_1.memoryStateTime::SREF 204613150156                       # Time in different power states
system.mem_ctrls1_1.memoryStateTime::PRE_PDN 504017157393                       # Time in different power states
system.mem_ctrls1_1.memoryStateTime::ACT 112558712268                       # Time in different power states
system.mem_ctrls1_1.memoryStateTime::ACT_PDN 915937191410                       # Time in different power states
system.pwrStateResidencyTicks::UNDEFINED 35111562349941                       # Cumulative time (in ticks) in various power states
system.cpu.branchPred.lookups                       0                       # Number of BP lookups
system.cpu.branchPred.condPredicted                 0                       # Number of conditional branches predicted
system.cpu.branchPred.condIncorrect                 0                       # Number of conditional branches incorrect
system.cpu.branchPred.BTBLookups                    0                       # Number of BTB lookups
system.cpu.branchPred.BTBHits                       0                       # Number of BTB hits
system.cpu.branchPred.BTBCorrect                    0                       # Number of correct BTB predictions (this stat may not work properly.
system.cpu.branchPred.BTBHitPct                   nan                       # BTB Hit Percentage
system.cpu.branchPred.usedRAS                       0                       # Number of times the RAS was used to get a target.
system.cpu.branchPred.RASInCorrect                  0                       # Number of incorrect RAS predictions.
system.cpu.branchPred.indirectLookups               0                       # Number of indirect predictor lookups.
system.cpu.branchPred.indirectHits                  0                       # Number of indirect target hits.
system.cpu.branchPred.indirectMisses                0                       # Number of indirect misses.
system.cpu.branchPredindirectMispredicted            0                       # Number of mispredicted indirect branches.
system.cpu_voltage_domain.voltage                   1                       # Voltage in Volts
system.cpu_clk_domain.clock                       333                       # Clock period in ticks
system.cpu.dtb.fetch_hits                           0                       # ITB hits
system.cpu.dtb.fetch_misses                         0                       # ITB misses
system.cpu.dtb.fetch_acv                            0                       # ITB acv
system.cpu.dtb.fetch_accesses                       0                       # ITB accesses
system.cpu.dtb.read_hits                           16                       # DTB read hits
system.cpu.dtb.read_misses                          0                       # DTB read misses
system.cpu.dtb.read_acv                             0                       # DTB read access violations
system.cpu.dtb.read_accesses                       16                       # DTB read accesses
system.cpu.dtb.write_hits                           1                       # DTB write hits
system.cpu.dtb.write_misses                         0                       # DTB write misses
system.cpu.dtb.write_acv                            0                       # DTB write access violations
system.cpu.dtb.write_accesses                       1                       # DTB write accesses
system.cpu.dtb.data_hits                           17                       # DTB hits
system.cpu.dtb.data_misses                          0                       # DTB misses
system.cpu.dtb.data_acv                             0                       # DTB access violations
system.cpu.dtb.data_accesses                       17                       # DTB accesses
system.cpu.itb.fetch_hits                           4                       # ITB hits
system.cpu.itb.fetch_misses                         0                       # ITB misses
system.cpu.itb.fetch_acv                            0                       # ITB acv
system.cpu.itb.fetch_accesses                       4                       # ITB accesses
system.cpu.itb.read_hits                            0                       # DTB read hits
system.cpu.itb.read_misses                          0                       # DTB read misses
system.cpu.itb.read_acv                             0                       # DTB read access violations
system.cpu.itb.read_accesses                        0                       # DTB read accesses
system.cpu.itb.write_hits                           0                       # DTB write hits
system.cpu.itb.write_misses                         0                       # DTB write misses
system.cpu.itb.write_acv                            0                       # DTB write access violations
system.cpu.itb.write_accesses                       0                       # DTB write accesses
system.cpu.itb.data_hits                            0                       # DTB hits
system.cpu.itb.data_misses                          0                       # DTB misses
system.cpu.itb.data_acv                             0                       # DTB access violations
system.cpu.itb.data_accesses                        0                       # DTB accesses
system.cpu.workload.num_syscalls                    0                       # Number of system calls
system.cpu.pwrStateResidencyTicks::ON    1808184425580                       # Cumulative time (in ticks) in various power states
system.cpu.numCycles                             1404                       # number of cpu cycles simulated
system.cpu.numWorkItemsStarted                      0                       # number of work items this cpu started
system.cpu.numWorkItemsCompleted                    0                       # number of work items this cpu completed
system.cpu.fetch.icacheStallCycles                 65                       # Number of cycles fetch is stalled on an Icache miss
system.cpu.fetch.Insts                             17                       # Number of instructions fetch has processed
system.cpu.fetch.Cycles                             3                       # Number of cycles fetch has run and was not squashing or blocked
system.cpu.fetch.SquashCycles                       3                       # Number of cycles fetch has spent squashing
system.cpu.fetch.PendingDrainCycles                 6                       # Number of cycles fetch has spent waiting on pipes to drain
system.cpu.fetch.CacheLines                         4                       # Number of cache lines fetched
system.cpu.fetch.IcacheSquashes                     2                       # Number of outstanding Icache misses that were squashed
system.cpu.fetch.rateDist::samples                 75                       # Number of instructions fetched each cycle (Total)
system.cpu.fetch.rateDist::mean              0.226667                       # Number of instructions fetched each cycle (Total)
system.cpu.fetch.rateDist::stdev             1.300450                       # Number of instructions fetched each cycle (Total)
system.cpu.fetch.rateDist::underflows               0      0.00%      0.00% # Number of instructions fetched each cycle (Total)
system.cpu.fetch.rateDist::0                       72     96.00%     96.00% # Number of instructions fetched each cycle (Total)
system.cpu.fetch.rateDist::1                        1      1.33%     97.33% # Number of instructions fetched each cycle (Total)
system.cpu.fetch.rateDist::2                        0      0.00%     97.33% # Number of instructions fetched each cycle (Total)
system.cpu.fetch.rateDist::3                        0      0.00%     97.33% # Number of instructions fetched each cycle (Total)
system.cpu.fetch.rateDist::4                        0      0.00%     97.33% # Number of instructions fetched each cycle (Total)
system.cpu.fetch.rateDist::5                        0      0.00%     97.33% # Number of instructions fetched each cycle (Total)
system.cpu.fetch.rateDist::6                        0      0.00%     97.33% # Number of instructions fetched each cycle (Total)
system.cpu.fetch.rateDist::7                        0      0.00%     97.33% # Number of instructions fetched each cycle (Total)
system.cpu.fetch.rateDist::8                        2      2.67%    100.00% # Number of instructions fetched each cycle (Total)
system.cpu.fetch.rateDist::overflows                0      0.00%    100.00% # Number of instructions fetched each cycle (Total)
system.cpu.fetch.rateDist::min_value                0                       # Number of instructions fetched each cycle (Total)
[...]
system.switch_cpus_1.iq.rate                 1.166494                       # Inst issue rate
system.switch_cpus_1.iq.fu_busy_cnt          37504299                       # FU busy when requested
system.switch_cpus_1.iq.fu_busy_rate         0.072967                       # FU busy rate (busy events/executed inst)
system.switch_cpus_1.iq.int_inst_queue_reads    590788331                       # Number of integer instruction queue reads
system.switch_cpus_1.iq.int_inst_queue_writes     70197484                       # Number of integer instruction queue writes
system.switch_cpus_1.iq.int_inst_queue_wakeup_accesses     69226257                       # Number of integer instruction queue wakeup accesses
system.switch_cpus_1.iq.fp_inst_queue_reads    915414253                       # Number of floating instruction queue reads
system.switch_cpus_1.iq.fp_inst_queue_writes    435298558                       # Number of floating instruction queue writes
system.switch_cpus_1.iq.fp_inst_queue_wakeup_accesses    432283016                       # Number of floating instruction queue wakeup accesses
system.switch_cpus_1.iq.int_alu_accesses     78735528                       # Number of integer alu accesses
system.switch_cpus_1.iq.fp_alu_accesses     472759564                       # Number of floating point alu accesses
system.switch_cpus_1.iew.lsq.thread0.forwLoads     23054516                       # Number of loads that had data forwarded from stores
system.switch_cpus_1.iew.lsq.thread0.invAddrLoads            0                       # Number of loads ignored due to an invalid address
system.switch_cpus_1.iew.lsq.thread0.squashedLoads      1031373                       # Number of loads squashed
system.switch_cpus_1.iew.lsq.thread0.ignoredResponses          999                       # Number of memory responses ignored because the instruction is squashed
system.switch_cpus_1.iew.lsq.thread0.memOrderViolation        51834                       # Number of memory ordering violations
system.switch_cpus_1.iew.lsq.thread0.squashedStores       547510                       # Number of stores squashed
system.switch_cpus_1.iew.lsq.thread0.invAddrSwpfs            0                       # Number of software prefetches ignored due to an invalid address
system.switch_cpus_1.iew.lsq.thread0.blockedLoads            0                       # Number of blocked loads due to partial load-store forwarding
system.switch_cpus_1.iew.lsq.thread0.rescheduledLoads            0                       # Number of loads that were rescheduled
system.switch_cpus_1.iew.lsq.thread0.cacheBlocked     12696608                       # Number of times an access to memory failed due to the cache being blocked
system.switch_cpus_1.iew.iewIdleCycles              0                       # Number of cycles IEW is idle
system.switch_cpus_1.iew.iewSquashCycles        62372                       # Number of cycles IEW is squashing
system.switch_cpus_1.iew.iewBlockCycles      51042932                       # Number of cycles IEW is blocking
system.switch_cpus_1.iew.iewUnblockCycles     88680342                       # Number of cycles IEW is unblocking
system.switch_cpus_1.iew.iewDispatchedInsts    502722253                       # Number of instructions dispatched to IQ
system.switch_cpus_1.iew.iewDispSquashedInsts         5243                       # Number of squashed instructions skipped by dispatch
system.switch_cpus_1.iew.iewDispLoadInsts    206586015                       # Number of dispatched load instructions
system.switch_cpus_1.iew.iewDispStoreInsts     95433089                       # Number of dispatched store instructions
system.switch_cpus_1.iew.iewDispNonSpecInsts            0                       # Number of dispatched non-speculative instructions
system.switch_cpus_1.iew.iewIQFullEvents        44932                       # Number of times the IQ has become full, causing a stall
system.switch_cpus_1.iew.iewLSQFullEvents     88466884                       # Number of times the LSQ has become full, causing a stall
system.switch_cpus_1.iew.memOrderViolationEvents        51834                       # Number of memory order violations
system.switch_cpus_1.iew.predictedTakenIncorrect         3374                       # Number of branches that were predicted taken incorrectly
system.switch_cpus_1.iew.predictedNotTakenIncorrect           74                       # Number of branches that were predicted not taken incorrectly
system.switch_cpus_1.iew.branchMispredicts         3448                       # Number of branch mispredicts detected at execute
system.switch_cpus_1.iew.iewExecutedInsts    513833975                       # Number of executed instructions
system.switch_cpus_1.iew.iewExecLoadInsts    218404500                       # Number of load instructions executed
system.switch_cpus_1.iew.iewExecSquashedInsts       156809                       # Number of squashed instructions skipped in execute
system.switch_cpus_1.iew.exec_swp                   0                       # number of swp insts executed
system.switch_cpus_1.iew.exec_nop                  63                       # number of nop insts executed
system.switch_cpus_1.iew.exec_refs          313529026                       # number of memory reference insts executed
system.switch_cpus_1.iew.exec_branches         414809                       # Number of branches executed
system.switch_cpus_1.iew.exec_stores         95124526                       # Number of stores executed
system.switch_cpus_1.iew.exec_rate           1.166138                       # Inst execution rate
system.switch_cpus_1.iew.wb_sent            501649355                       # cumulative count of insts sent to commit
system.switch_cpus_1.iew.wb_count           501509273                       # cumulative count of insts written-back
system.switch_cpus_1.iew.wb_producers       328713954                       # num instructions producing a value
system.switch_cpus_1.iew.wb_consumers       342045095                       # num instructions consuming a value
system.switch_cpus_1.iew.wb_rate             1.138167                       # insts written-back per cycle
system.switch_cpus_1.iew.wb_fanout           0.961025                       # average fanout of values written-back
system.switch_cpus_1.commit.commitSquashedInsts      2621814                       # The number of squashed insts skipped by commit
system.switch_cpus_1.commit.branchMispredicts         3434                       # The number of times a branch was mispredicted
system.switch_cpus_1.commit.committed_per_cycle::samples    440265189                       # Number of insts commited each cycle
system.switch_cpus_1.commit.committed_per_cycle::mean     1.135679                       # Number of insts commited each cycle
system.switch_cpus_1.commit.committed_per_cycle::stdev     2.566846                       # Number of insts commited each cycle
system.switch_cpus_1.commit.committed_per_cycle::underflows            0      0.00%      0.00% # Number of insts commited each cycle
system.switch_cpus_1.commit.committed_per_cycle::0    354266879     80.47%     80.47% # Number of insts commited each cycle
system.switch_cpus_1.commit.committed_per_cycle::1      7082191      1.61%     82.08% # Number of insts commited each cycle
system.switch_cpus_1.commit.committed_per_cycle::2      7759569      1.76%     83.84% # Number of insts commited each cycle
system.switch_cpus_1.commit.committed_per_cycle::3      5969638      1.36%     85.19% # Number of insts commited each cycle
system.switch_cpus_1.commit.committed_per_cycle::4      7387536      1.68%     86.87% # Number of insts commited each cycle
system.switch_cpus_1.commit.committed_per_cycle::5      6180767      1.40%     88.28% # Number of insts commited each cycle
system.switch_cpus_1.commit.committed_per_cycle::6      4575501      1.04%     89.31% # Number of insts commited each cycle
system.switch_cpus_1.commit.committed_per_cycle::7      4762047      1.08%     90.40% # Number of insts commited each cycle
system.switch_cpus_1.commit.committed_per_cycle::8     42281061      9.60%    100.00% # Number of insts commited each cycle
system.switch_cpus_1.commit.committed_per_cycle::overflows            0      0.00%    100.00% # Number of insts commited each cycle
system.switch_cpus_1.commit.committed_per_cycle::min_value            0                       # Number of insts commited each cycle
system.switch_cpus_1.commit.committed_per_cycle::max_value            8                       # Number of insts commited each cycle
system.switch_cpus_1.commit.committed_per_cycle::total    440265189                       # Number of insts commited each cycle
system.switch_cpus_1.commit.committedInsts    500000045                       # Number of instructions committed
system.switch_cpus_1.commit.committedOps    500000045                       # Number of ops (including micro ops) committed
system.switch_cpus_1.commit.swp_count               0                       # Number of s/w prefetches committed
system.switch_cpus_1.commit.refs            300440207                       # Number of memory references committed
system.switch_cpus_1.commit.loads           205554630                       # Number of loads committed
system.switch_cpus_1.commit.membars                 0                       # Number of memory barriers committed
system.switch_cpus_1.commit.branches           404832                       # Number of branches committed
system.switch_cpus_1.commit.fp_insts        431374035                       # Number of committed floating point instructions.
system.switch_cpus_1.commit.int_insts       338346711                       # Number of committed integer instructions.
system.switch_cpus_1.commit.function_calls            0                       # Number of function calls committed.
system.switch_cpus_1.commit.op_class_0::No_OpClass           42      0.00%      0.00% # Class of committed instruction
system.switch_cpus_1.commit.op_class_0::IntAlu     37907722      7.58%      7.58% # Class of committed instruction
system.switch_cpus_1.commit.op_class_0::IntMult          434      0.00%      7.58% # Class of committed instruction
system.switch_cpus_1.commit.op_class_0::IntDiv            0      0.00%      7.58% # Class of committed instruction
system.switch_cpus_1.commit.op_class_0::FloatAdd     90280575     18.06%     25.64% # Class of committed instruction
system.switch_cpus_1.commit.op_class_0::FloatCmp            0      0.00%     25.64% # Class of committed instruction
system.switch_cpus_1.commit.op_class_0::FloatCvt            0      0.00%     25.64% # Class of committed instruction
system.switch_cpus_1.commit.op_class_0::FloatMult     71176191     14.24%     39.87% # Class of committed instruction
system.switch_cpus_1.commit.op_class_0::FloatMultAcc            0      0.00%     39.87% # Class of committed instruction
system.switch_cpus_1.commit.op_class_0::FloatDiv       194874      0.04%     39.91% # Class of committed instruction
system.switch_cpus_1.commit.op_class_0::FloatMisc            0      0.00%     39.91% # Class of committed instruction
system.switch_cpus_1.commit.op_class_0::FloatSqrt            0      0.00%     39.91% # Class of committed instruction
system.switch_cpus_1.commit.op_class_0::SimdAdd            0      0.00%     39.91% # Class of committed instruction
system.switch_cpus_1.commit.op_class_0::SimdAddAcc            0      0.00%     39.91% # Class of committed instruction
system.switch_cpus_1.commit.op_class_0::SimdAlu            0      0.00%     39.91% # Class of committed instruction
system.switch_cpus_1.commit.op_class_0::SimdCmp            0      0.00%     39.91% # Class of committed instruction
system.switch_cpus_1.commit.op_class_0::SimdCvt            0      0.00%     39.91% # Class of committed instruction
system.switch_cpus_1.commit.op_class_0::SimdMisc            0      0.00%     39.91% # Class of committed instruction
system.switch_cpus_1.commit.op_class_0::SimdMult            0      0.00%     39.91% # Class of committed instruction
system.switch_cpus_1.commit.op_class_0::SimdMultAcc            0      0.00%     39.91% # Class of committed instruction
system.switch_cpus_1.commit.op_class_0::SimdShift            0      0.00%     39.91% # Class of committed instruction
system.switch_cpus_1.commit.op_class_0::SimdShiftAcc            0      0.00%     39.91% # Class of committed instruction
system.switch_cpus_1.commit.op_class_0::SimdSqrt            0      0.00%     39.91% # Class of committed instruction
system.switch_cpus_1.commit.op_class_0::SimdFloatAdd            0      0.00%     39.91% # Class of committed instruction
system.switch_cpus_1.commit.op_class_0::SimdFloatAlu            0      0.00%     39.91% # Class of committed instruction
system.switch_cpus_1.commit.op_class_0::SimdFloatCmp            0      0.00%     39.91% # Class of committed instruction
system.switch_cpus_1.commit.op_class_0::SimdFloatCvt            0      0.00%     39.91% # Class of committed instruction
system.switch_cpus_1.commit.op_class_0::SimdFloatDiv            0      0.00%     39.91% # Class of committed instruction
system.switch_cpus_1.commit.op_class_0::SimdFloatMisc            0      0.00%     39.91% # Class of committed instruction
system.switch_cpus_1.commit.op_class_0::SimdFloatMult            0      0.00%     39.91% # Class of committed instruction
system.switch_cpus_1.commit.op_class_0::SimdFloatMultAcc            0      0.00%     39.91% # Class of committed instruction
system.switch_cpus_1.commit.op_class_0::SimdFloatSqrt            0      0.00%     39.91% # Class of committed instruction
system.switch_cpus_1.commit.op_class_0::MemRead     20509953      4.10%     44.01% # Class of committed instruction
system.switch_cpus_1.commit.op_class_0::MemWrite     10207859      2.04%     46.06% # Class of committed instruction
system.switch_cpus_1.commit.op_class_0::FloatMemRead    185044677     37.01%     83.06% # Class of committed instruction
system.switch_cpus_1.commit.op_class_0::FloatMemWrite     84677718     16.94%    100.00% # Class of committed instruction
system.switch_cpus_1.commit.op_class_0::IprAccess            0      0.00%    100.00% # Class of committed instruction
system.switch_cpus_1.commit.op_class_0::InstPrefetch            0      0.00%    100.00% # Class of committed instruction
system.switch_cpus_1.commit.op_class_0::total    500000045                       # Class of committed instruction
system.switch_cpus_1.commit.bw_lim_events     42281061                       # number cycles where commit BW limit reached
system.switch_cpus_1.rob.rob_reads          900412222                       # The number of ROB reads
system.switch_cpus_1.rob.rob_writes        1005608128                       # The number of ROB writes
system.switch_cpus_1.timesIdled                    12                       # Number of times that the entire CPU went into an idle state and unscheduled itself
system.switch_cpus_1.idleCycles                  1960                       # Total number of cycles that the CPU has spent unscheduled due to idling
system.switch_cpus_1.committedInsts         500000003                       # Number of Instructions Simulated
system.switch_cpus_1.committedOps           500000003                       # Number of Ops (including micro ops) Simulated
system.switch_cpus_1.cpi                     0.881258                       # CPI: Cycles Per Instruction
system.switch_cpus_1.cpi_total               0.881258                       # CPI: Total CPI of All Threads
system.switch_cpus_1.ipc                     1.134742                       # IPC: Instructions Per Cycle
system.switch_cpus_1.ipc_total               1.134742                       # IPC: Total IPC of All Threads
system.switch_cpus_1.int_regfile_reads      363211918                       # number of integer regfile reads
system.switch_cpus_1.int_regfile_writes      58575765                       # number of integer regfile writes
system.switch_cpus_1.fp_regfile_reads       408794059                       # number of floating regfile reads
system.switch_cpus_1.fp_regfile_writes      347508795                       # number of floating regfile writes
system.tol3bus.snoop_filter.tot_requests      9912521                       # Total number of requests made to the snoop filter.
system.tol3bus.snoop_filter.hit_single_requests      4954386                       # Number of requests hitting in the snoop filter with a single holder of the requested data.
system.tol3bus.snoop_filter.hit_multi_requests            0                       # Number of requests hitting in the snoop filter with multiple (>1) holders of the requested data.
system.tol3bus.snoop_filter.tot_snoops          26724                       # Total number of snoops made to the snoop filter.
system.tol3bus.snoop_filter.hit_single_snoops        26724                       # Number of snoops hitting in the snoop filter with a single holder of the requested data.
system.tol3bus.snoop_filter.hit_multi_snoops            0                       # Number of snoops hitting in the snoop filter with multiple (>1) holders of the requested data.
system.tol3bus.pwrStateResidencyTicks::UNDEFINED 35111562349941                       # Cumulative time (in ticks) in various power states
system.tol3bus.trans_dist::ReadResp           3526158                       # Transaction distribution
system.tol3bus.trans_dist::WritebackDirty      3208299                       # Transaction distribution
system.tol3bus.trans_dist::CleanEvict         5756797                       # Transaction distribution
system.tol3bus.trans_dist::ReadExReq          1431977                       # Transaction distribution
system.tol3bus.trans_dist::ReadExResp         1431976                       # Transaction distribution
system.tol3bus.trans_dist::ReadSharedReq      3526158                       # Transaction distribution
system.tol3bus.pkt_count_system.cpu.l2.mem_side::system.l3.cpu_side     14870655                       # Packet count per connected master and slave (bytes)
system.tol3bus.pkt_size_system.cpu.l2.mem_side::system.l3.cpu_side    434952576                       # Cumulative packet size per connected master and slave (bytes)
system.tol3bus.snoops                         4010710                       # Total snoops (count)
system.tol3bus.snoopTraffic                  87699136                       # Total snoop traffic (bytes)
system.tol3bus.snoop_fanout::samples          8968845                       # Request fanout histogram
system.tol3bus.snoop_fanout::mean            0.002980                       # Request fanout histogram
system.tol3bus.snoop_fanout::stdev           0.054505                       # Request fanout histogram
system.tol3bus.snoop_fanout::underflows             0      0.00%      0.00% # Request fanout histogram
system.tol3bus.snoop_fanout::0                8942121     99.70%     99.70% # Request fanout histogram
system.tol3bus.snoop_fanout::1                  26724      0.30%    100.00% # Request fanout histogram
system.tol3bus.snoop_fanout::overflows              0      0.00%    100.00% # Request fanout histogram
system.tol3bus.snoop_fanout::min_value              0                       # Request fanout histogram
system.tol3bus.snoop_fanout::max_value              1                       # Request fanout histogram
system.tol3bus.snoop_fanout::total            8968845                       # Request fanout histogram
system.tol3bus.reqLayer0.occupancy         3912923493                       # Layer occupancy (ticks)
system.tol3bus.reqLayer0.utilization              0.2                       # Layer utilization (%)
system.tol3bus.respLayer0.occupancy        3302117244                       # Layer occupancy (ticks)
system.tol3bus.respLayer0.utilization             0.2                       # Layer utilization (%)

---------- End Simulation Statistics   ----------
