
---------- Begin Simulation Statistics ----------
sim_seconds                                  0.902631                       # Number of seconds simulated
sim_ticks                                902631211587                       # Number of ticks simulated
final_tick                               267305261343489                       # Number of ticks from beginning of simulation (restored from checkpoints and never reset)
sim_freq                                 1000000000000                       # Frequency of simulated ticks
host_inst_rate                                 864544                       # Simulator instruction rate (inst/s)
host_op_rate                                   864544                       # Simulator op (including micro ops) rate (op/s)
host_tick_rate                              650303437                       # Simulator tick rate (ticks/s)
host_mem_usage                                2550136                       # Number of bytes of host memory used
host_seconds                                  1388.02                       # Real time elapsed on the host
sim_insts                                  1200000006                       # Number of instructions simulated
sim_ops                                    1200000006                       # Number of ops (including micro ops) simulated
system.voltage_domain.voltage                       1                       # Voltage in Volts
system.clk_domain.clock                          1000                       # Clock period in ticks
system.mem_ctrls0.pwrStateResidencyTicks::UNDEFINED 267305261343489                       # Cumulative time (in ticks) in various power states
system.mem_ctrls0.bytes_read::cpu.inst            128                       # Number of bytes read from this memory
system.mem_ctrls0.bytes_read::cpu.data             64                       # Number of bytes read from this memory
system.mem_ctrls0.bytes_read::switch_cpus.inst         7616                       # Number of bytes read from this memory
system.mem_ctrls0.bytes_read::switch_cpus.data       989696                       # Number of bytes read from this memory
system.mem_ctrls0.bytes_read::switch_cpus_1.inst          704                       # Number of bytes read from this memory
system.mem_ctrls0.bytes_read::switch_cpus_1.data       243328                       # Number of bytes read from this memory
system.mem_ctrls0.bytes_read::total           1241536                       # Number of bytes read from this memory
system.mem_ctrls0.bytes_inst_read::cpu.inst          128                       # Number of instructions bytes read from this memory
system.mem_ctrls0.bytes_inst_read::switch_cpus.inst         7616                       # Number of instructions bytes read from this memory
system.mem_ctrls0.bytes_inst_read::switch_cpus_1.inst          704                       # Number of instructions bytes read from this memory
system.mem_ctrls0.bytes_inst_read::total         8448                       # Number of instructions bytes read from this memory
system.mem_ctrls0.num_reads::cpu.inst               2                       # Number of read requests responded to by this memory
system.mem_ctrls0.num_reads::cpu.data               1                       # Number of read requests responded to by this memory
system.mem_ctrls0.num_reads::switch_cpus.inst          119                       # Number of read requests responded to by this memory
system.mem_ctrls0.num_reads::switch_cpus.data        15464                       # Number of read requests responded to by this memory
system.mem_ctrls0.num_reads::switch_cpus_1.inst           11                       # Number of read requests responded to by this memory
system.mem_ctrls0.num_reads::switch_cpus_1.data         3802                       # Number of read requests responded to by this memory
system.mem_ctrls0.num_reads::total              19399                       # Number of read requests responded to by this memory
system.mem_ctrls0.bw_read::cpu.inst               142                       # Total read bandwidth from this memory (bytes/s)
system.mem_ctrls0.bw_read::cpu.data                71                       # Total read bandwidth from this memory (bytes/s)
system.mem_ctrls0.bw_read::switch_cpus.inst         8438                       # Total read bandwidth from this memory (bytes/s)
system.mem_ctrls0.bw_read::switch_cpus.data      1096457                       # Total read bandwidth from this memory (bytes/s)
system.mem_ctrls0.bw_read::switch_cpus_1.inst          780                       # Total read bandwidth from this memory (bytes/s)
system.mem_ctrls0.bw_read::switch_cpus_1.data       269576                       # Total read bandwidth from this memory (bytes/s)
system.mem_ctrls0.bw_read::total              1375463                       # Total read bandwidth from this memory (bytes/s)
system.mem_ctrls0.bw_inst_read::cpu.inst          142                       # Instruction read bandwidth from this memory (bytes/s)
system.mem_ctrls0.bw_inst_read::switch_cpus.inst         8438                       # Instruction read bandwidth from this memory (bytes/s)
system.mem_ctrls0.bw_inst_read::switch_cpus_1.inst          780                       # Instruction read bandwidth from this memory (bytes/s)
system.mem_ctrls0.bw_inst_read::total            9359                       # Instruction read bandwidth from this memory (bytes/s)
system.mem_ctrls0.bw_total::cpu.inst              142                       # Total bandwidth to/from this memory (bytes/s)
system.mem_ctrls0.bw_total::cpu.data               71                       # Total bandwidth to/from this memory (bytes/s)
system.mem_ctrls0.bw_total::switch_cpus.inst         8438                       # Total bandwidth to/from this memory (bytes/s)
system.mem_ctrls0.bw_total::switch_cpus.data      1096457                       # Total bandwidth to/from this memory (bytes/s)
system.mem_ctrls0.bw_total::switch_cpus_1.inst          780                       # Total bandwidth to/from this memory (bytes/s)
system.mem_ctrls0.bw_total::switch_cpus_1.data       269576                       # Total bandwidth to/from this memory (bytes/s)
system.mem_ctrls0.bw_total::total             1375463                       # Total bandwidth to/from this memory (bytes/s)
system.mem_ctrls0.readReqs                      19399                       # Number of read requests accepted
system.mem_ctrls0.writeReqs                         0                       # Number of write requests accepted
system.mem_ctrls0.readBursts                    19399                       # Number of DRAM read bursts, including those serviced by the write queue
system.mem_ctrls0.writeBursts                       0                       # Number of DRAM write bursts, including those merged in the write queue
system.mem_ctrls0.bytesReadDRAM               1241536                       # Total number of bytes read from DRAM
system.mem_ctrls0.bytesReadWrQ                      0                       # Total number of bytes read from write queue
system.mem_ctrls0.bytesWritten                      0                       # Total number of bytes written to DRAM
system.mem_ctrls0.bytesReadSys                1241536                       # Total read bytes from the system interface side
system.mem_ctrls0.bytesWrittenSys                   0                       # Total written bytes from the system interface side
system.mem_ctrls0.servicedByWrQ                     0                       # Number of DRAM read bursts serviced by the write queue
system.mem_ctrls0.mergedWrBursts                    0                       # Number of DRAM write bursts merged with an existing one
system.mem_ctrls0.neitherReadNorWriteReqs            0                       # Number of requests that are neither read nor write
system.mem_ctrls0.perBankRdBursts::0             1152                       # Per bank write bursts
system.mem_ctrls0.perBankRdBursts::1             1190                       # Per bank write bursts
system.mem_ctrls0.perBankRdBursts::2             1156                       # Per bank write bursts
system.mem_ctrls0.perBankRdBursts::3             1156                       # Per bank write bursts
system.mem_ctrls0.perBankRdBursts::4             1152                       # Per bank write bursts
system.mem_ctrls0.perBankRdBursts::5             1152                       # Per bank write bursts
system.mem_ctrls0.perBankRdBursts::6             1180                       # Per bank write bursts
system.mem_ctrls0.perBankRdBursts::7             1272                       # Per bank write bursts
system.mem_ctrls0.perBankRdBursts::8             1330                       # Per bank write bursts
system.mem_ctrls0.perBankRdBursts::9             1403                       # Per bank write bursts
system.mem_ctrls0.perBankRdBursts::10            1288                       # Per bank write bursts
system.mem_ctrls0.perBankRdBursts::11            1118                       # Per bank write bursts
system.mem_ctrls0.perBankRdBursts::12            1160                       # Per bank write bursts
system.mem_ctrls0.perBankRdBursts::13            1158                       # Per bank write bursts
system.mem_ctrls0.perBankRdBursts::14            1280                       # Per bank write bursts
system.mem_ctrls0.perBankRdBursts::15            1252                       # Per bank write bursts
system.mem_ctrls0.perBankWrBursts::0                0                       # Per bank write bursts
system.mem_ctrls0.perBankWrBursts::1                0                       # Per bank write bursts
system.mem_ctrls0.perBankWrBursts::2                0                       # Per bank write bursts
system.mem_ctrls0.perBankWrBursts::3                0                       # Per bank write bursts
system.mem_ctrls0.perBankWrBursts::4                0                       # Per bank write bursts
system.mem_ctrls0.perBankWrBursts::5                0                       # Per bank write bursts
system.mem_ctrls0.perBankWrBursts::6                0                       # Per bank write bursts
system.mem_ctrls0.perBankWrBursts::7                0                       # Per bank write bursts
system.mem_ctrls0.perBankWrBursts::8                0                       # Per bank write bursts
system.mem_ctrls0.perBankWrBursts::9                0                       # Per bank write bursts
system.mem_ctrls0.perBankWrBursts::10               0                       # Per bank write bursts
system.mem_ctrls0.perBankWrBursts::11               0                       # Per bank write bursts
system.mem_ctrls0.perBankWrBursts::12               0                       # Per bank write bursts
system.mem_ctrls0.perBankWrBursts::13               0                       # Per bank write bursts
system.mem_ctrls0.perBankWrBursts::14               0                       # Per bank write bursts
system.mem_ctrls0.perBankWrBursts::15               0                       # Per bank write bursts
system.mem_ctrls0.numRdRetry                        0                       # Number of times read queue was full causing retry
system.mem_ctrls0.numWrRetry                        0                       # Number of times write queue was full causing retry
system.mem_ctrls0.totGap                 901886800743                       # Total gap between requests
system.mem_ctrls0.readPktSize::0                    0                       # Read request sizes (log2)
system.mem_ctrls0.readPktSize::1                    0                       # Read request sizes (log2)
system.mem_ctrls0.readPktSize::2                    0                       # Read request sizes (log2)
system.mem_ctrls0.readPktSize::3                    0                       # Read request sizes (log2)
system.mem_ctrls0.readPktSize::4                    0                       # Read request sizes (log2)
system.mem_ctrls0.readPktSize::5                    0                       # Read request sizes (log2)
system.mem_ctrls0.readPktSize::6                19399                       # Read request sizes (log2)
system.mem_ctrls0.writePktSize::0                   0                       # Write request sizes (log2)
system.mem_ctrls0.writePktSize::1                   0                       # Write request sizes (log2)
system.mem_ctrls0.writePktSize::2                   0                       # Write request sizes (log2)
system.mem_ctrls0.writePktSize::3                   0                       # Write request sizes (log2)
system.mem_ctrls0.writePktSize::4                   0                       # Write request sizes (log2)
system.mem_ctrls0.writePktSize::5                   0                       # Write request sizes (log2)
system.mem_ctrls0.writePktSize::6                   0                       # Write request sizes (log2)
system.mem_ctrls0.rdQLenPdf::0                  18686                       # What read queue length does an incoming req see
system.mem_ctrls0.rdQLenPdf::1                    713                       # What read queue length does an incoming req see
system.mem_ctrls0.rdQLenPdf::2                      0                       # What read queue length does an incoming req see
system.mem_ctrls0.rdQLenPdf::3                      0                       # What read queue length does an incoming req see
system.mem_ctrls0.rdQLenPdf::4                      0                       # What read queue length does an incoming req see
system.mem_ctrls0.rdQLenPdf::5                      0                       # What read queue length does an incoming req see
system.mem_ctrls0.rdQLenPdf::6                      0                       # What read queue length does an incoming req see
system.mem_ctrls0.rdQLenPdf::7                      0                       # What read queue length does an incoming req see
system.mem_ctrls0.rdQLenPdf::8                      0                       # What read queue length does an incoming req see
system.mem_ctrls0.rdQLenPdf::9                      0                       # What read queue length does an incoming req see
system.mem_ctrls0.rdQLenPdf::10                     0                       # What read queue length does an incoming req see
system.mem_ctrls0.rdQLenPdf::11                     0                       # What read queue length does an incoming req see
system.mem_ctrls0.rdQLenPdf::12                     0                       # What read queue length does an incoming req see
system.mem_ctrls0.rdQLenPdf::13                     0                       # What read queue length does an incoming req see
system.mem_ctrls0.rdQLenPdf::14                     0                       # What read queue length does an incoming req see
system.mem_ctrls0.rdQLenPdf::15                     0                       # What read queue length does an incoming req see
system.mem_ctrls0.rdQLenPdf::16                     0                       # What read queue length does an incoming req see
system.mem_ctrls0.rdQLenPdf::17                     0                       # What read queue length does an incoming req see
system.mem_ctrls0.rdQLenPdf::18                     0                       # What read queue length does an incoming req see
system.mem_ctrls0.rdQLenPdf::19                     0                       # What read queue length does an incoming req see
system.mem_ctrls0.rdQLenPdf::20                     0                       # What read queue length does an incoming req see
system.mem_ctrls0.rdQLenPdf::21                     0                       # What read queue length does an incoming req see
system.mem_ctrls0.rdQLenPdf::22                     0                       # What read queue length does an incoming req see
system.mem_ctrls0.rdQLenPdf::23                     0                       # What read queue length does an incoming req see
system.mem_ctrls0.rdQLenPdf::24                     0                       # What read queue length does an incoming req see
system.mem_ctrls0.rdQLenPdf::25                     0                       # What read queue length does an incoming req see
system.mem_ctrls0.rdQLenPdf::26                     0                       # What read queue length does an incoming req see
system.mem_ctrls0.rdQLenPdf::27                     0                       # What read queue length does an incoming req see
system.mem_ctrls0.rdQLenPdf::28                     0                       # What read queue length does an incoming req see
system.mem_ctrls0.rdQLenPdf::29                     0                       # What read queue length does an incoming req see
system.mem_ctrls0.rdQLenPdf::30                     0                       # What read queue length does an incoming req see
system.mem_ctrls0.rdQLenPdf::31                     0                       # What read queue length does an incoming req see
system.mem_ctrls0.wrQLenPdf::0                      0                       # What write queue length does an incoming req see
system.mem_ctrls0.wrQLenPdf::1                      0                       # What write queue length does an incoming req see
system.mem_ctrls0.wrQLenPdf::2                      0                       # What write queue length does an incoming req see
system.mem_ctrls0.wrQLenPdf::3                      0                       # What write queue length does an incoming req see
system.mem_ctrls0.wrQLenPdf::4                      0                       # What write queue length does an incoming req see
system.mem_ctrls0.wrQLenPdf::5                      0                       # What write queue length does an incoming req see
system.mem_ctrls0.wrQLenPdf::6                      0                       # What write queue length does an incoming req see
system.mem_ctrls0.wrQLenPdf::7                      0                       # What write queue length does an incoming req see
system.mem_ctrls0.wrQLenPdf::8                      0                       # What write queue length does an incoming req see
system.mem_ctrls0.wrQLenPdf::9                      0                       # What write queue length does an incoming req see
system.mem_ctrls0.wrQLenPdf::10                     0                       # What write queue length does an incoming req see
system.mem_ctrls0.wrQLenPdf::11                     0                       # What write queue length does an incoming req see
system.mem_ctrls0.wrQLenPdf::12                     0                       # What write queue length does an incoming req see
system.mem_ctrls0.wrQLenPdf::13                     0                       # What write queue length does an incoming req see
system.mem_ctrls0.wrQLenPdf::14                     0                       # What write queue length does an incoming req see
system.mem_ctrls0.wrQLenPdf::15                     0                       # What write queue length does an incoming req see
system.mem_ctrls0.wrQLenPdf::16                     0                       # What write queue length does an incoming req see
system.mem_ctrls0.wrQLenPdf::17                     0                       # What write queue length does an incoming req see
system.mem_ctrls0.wrQLenPdf::18                     0                       # What write queue length does an incoming req see
system.mem_ctrls0.wrQLenPdf::19                     0                       # What write queue length does an incoming req see
system.mem_ctrls0.wrQLenPdf::20                     0                       # What write queue length does an incoming req see
system.mem_ctrls0.wrQLenPdf::21                     0                       # What write queue length does an incoming req see
system.mem_ctrls0.wrQLenPdf::22                     0                       # What write queue length does an incoming req see
system.mem_ctrls0.wrQLenPdf::23                     0                       # What write queue length does an incoming req see
system.mem_ctrls0.wrQLenPdf::24                     0                       # What write queue length does an incoming req see
system.mem_ctrls0.wrQLenPdf::25                     0                       # What write queue length does an incoming req see
system.mem_ctrls0.wrQLenPdf::26                     0                       # What write queue length does an incoming req see
system.mem_ctrls0.wrQLenPdf::27                     0                       # What write queue length does an incoming req see
system.mem_ctrls0.wrQLenPdf::28                     0                       # What write queue length does an incoming req see
system.mem_ctrls0.wrQLenPdf::29                     0                       # What write queue length does an incoming req see
system.mem_ctrls0.wrQLenPdf::30                     0                       # What write queue length does an incoming req see
system.mem_ctrls0.wrQLenPdf::31                     0                       # What write queue length does an incoming req see
system.mem_ctrls0.wrQLenPdf::32                     0                       # What write queue length does an incoming req see
system.mem_ctrls0.wrQLenPdf::33                     0                       # What write queue length does an incoming req see
system.mem_ctrls0.wrQLenPdf::34                     0                       # What write queue length does an incoming req see
system.mem_ctrls0.wrQLenPdf::35                     0                       # What write queue length does an incoming req see
system.mem_ctrls0.wrQLenPdf::36                     0                       # What write queue length does an incoming req see
system.mem_ctrls0.wrQLenPdf::37                     0                       # What write queue length does an incoming req see
system.mem_ctrls0.wrQLenPdf::38                     0                       # What write queue length does an incoming req see
system.mem_ctrls0.wrQLenPdf::39                     0                       # What write queue length does an incoming req see
system.mem_ctrls0.wrQLenPdf::40                     0                       # What write queue length does an incoming req see
system.mem_ctrls0.wrQLenPdf::41                     0                       # What write queue length does an incoming req see
system.mem_ctrls0.wrQLenPdf::42                     0                       # What write queue length does an incoming req see
system.mem_ctrls0.wrQLenPdf::43                     0                       # What write queue length does an incoming req see
system.mem_ctrls0.wrQLenPdf::44                     0                       # What write queue length does an incoming req see
system.mem_ctrls0.wrQLenPdf::45                     0                       # What write queue length does an incoming req see
system.mem_ctrls0.wrQLenPdf::46                     0                       # What write queue length does an incoming req see
system.mem_ctrls0.wrQLenPdf::47                     0                       # What write queue length does an incoming req see
system.mem_ctrls0.wrQLenPdf::48                     0                       # What write queue length does an incoming req see
system.mem_ctrls0.wrQLenPdf::49                     0                       # What write queue length does an incoming req see
system.mem_ctrls0.wrQLenPdf::50                     0                       # What write queue length does an incoming req see
system.mem_ctrls0.wrQLenPdf::51                     0                       # What write queue length does an incoming req see
system.mem_ctrls0.wrQLenPdf::52                     0                       # What write queue length does an incoming req see
system.mem_ctrls0.wrQLenPdf::53                     0                       # What write queue length does an incoming req see
system.mem_ctrls0.wrQLenPdf::54                     0                       # What write queue length does an incoming req see
system.mem_ctrls0.wrQLenPdf::55                     0                       # What write queue length does an incoming req see
system.mem_ctrls0.wrQLenPdf::56                     0                       # What write queue length does an incoming req see
system.mem_ctrls0.wrQLenPdf::57                     0                       # What write queue length does an incoming req see
system.mem_ctrls0.wrQLenPdf::58                     0                       # What write queue length does an incoming req see
system.mem_ctrls0.wrQLenPdf::59                     0                       # What write queue length does an incoming req see
system.mem_ctrls0.wrQLenPdf::60                     0                       # What write queue length does an incoming req see
system.mem_ctrls0.wrQLenPdf::61                     0                       # What write queue length does an incoming req see
system.mem_ctrls0.wrQLenPdf::62                     0                       # What write queue length does an incoming req see
system.mem_ctrls0.wrQLenPdf::63                     0                       # What write queue length does an incoming req see
system.mem_ctrls0.bytesPerActivate::samples         4455                       # Bytes accessed per row activation
system.mem_ctrls0.bytesPerActivate::mean   278.683726                       # Bytes accessed per row activation
system.mem_ctrls0.bytesPerActivate::gmean   206.503197                       # Bytes accessed per row activation
system.mem_ctrls0.bytesPerActivate::stdev   204.072146                       # Bytes accessed per row activation
system.mem_ctrls0.bytesPerActivate::0-127         1052     23.61%     23.61% # Bytes accessed per row activation
system.mem_ctrls0.bytesPerActivate::128-255         1042     23.39%     47.00% # Bytes accessed per row activation
system.mem_ctrls0.bytesPerActivate::256-383          474     10.64%     57.64% # Bytes accessed per row activation
system.mem_ctrls0.bytesPerActivate::384-511         1345     30.19%     87.83% # Bytes accessed per row activation
system.mem_ctrls0.bytesPerActivate::512-639          399      8.96%     96.79% # Bytes accessed per row activation
system.mem_ctrls0.bytesPerActivate::640-767           13      0.29%     97.08% # Bytes accessed per row activation
system.mem_ctrls0.bytesPerActivate::768-895            8      0.18%     97.26% # Bytes accessed per row activation
system.mem_ctrls0.bytesPerActivate::896-1023           13      0.29%     97.55% # Bytes accessed per row activation
system.mem_ctrls0.bytesPerActivate::1024-1151          109      2.45%    100.00% # Bytes accessed per row activation
system.mem_ctrls0.bytesPerActivate::total         4455                       # Bytes accessed per row activation
system.mem_ctrls0.totQLat                   776488903                       # Total ticks spent queuing
system.mem_ctrls0.totMemAccLat             1140220153                       # Total ticks spent from burst creation until serviced by the DRAM
system.mem_ctrls0.totBusLat                  96995000                       # Total ticks spent in databus transfers
system.mem_ctrls0.avgQLat                    40027.26                       # Average queueing delay per DRAM burst
system.mem_ctrls0.avgBusLat                   5000.00                       # Average bus latency per DRAM burst
system.mem_ctrls0.avgMemAccLat               58777.26                       # Average memory access latency per DRAM burst
system.mem_ctrls0.avgRdBW                        1.38                       # Average DRAM read bandwidth in MiByte/s
system.mem_ctrls0.avgWrBW                        0.00                       # Average achieved write bandwidth in MiByte/s
system.mem_ctrls0.avgRdBWSys                     1.38                       # Average system read bandwidth in MiByte/s
system.mem_ctrls0.avgWrBWSys                     0.00                       # Average system write bandwidth in MiByte/s
system.mem_ctrls0.peakBW                     12800.00                       # Theoretical peak bandwidth in MiByte/s
system.mem_ctrls0.busUtil                        0.01                       # Data bus utilization in percentage
system.mem_ctrls0.busUtilRead                    0.01                       # Data bus utilization in percentage for reads
system.mem_ctrls0.busUtilWrite                   0.00                       # Data bus utilization in percentage for writes
system.mem_ctrls0.avgRdQLen                      1.01                       # Average read queue length when enqueuing
system.mem_ctrls0.avgWrQLen                      0.00                       # Average write queue length when enqueuing
system.mem_ctrls0.readRowHits                   14944                       # Number of row buffer hits during reads
system.mem_ctrls0.writeRowHits                      0                       # Number of row buffer hits during writes
system.mem_ctrls0.readRowHitRate                77.03                       # Row buffer hit rate for reads
system.mem_ctrls0.writeRowHitRate                 nan                       # Row buffer hit rate for writes
system.mem_ctrls0.avgGap                  46491406.81                       # Average gap between requests
system.mem_ctrls0.pageHitRate                   77.03                       # Row buffer hit rate, read and write combined
system.mem_ctrls0_0.actEnergy                16379160                       # Energy for activate commands per rank (pJ)
system.mem_ctrls0_0.preEnergy                 8705730                       # Energy for precharge commands per rank (pJ)
system.mem_ctrls0_0.readEnergy               67187400                       # Energy for read commands per rank (pJ)
system.mem_ctrls0_0.writeEnergy                     0                       # Energy for write commands per rank (pJ)
system.mem_ctrls0_0.refreshEnergy        1365115440.000000                       # Energy for refresh commands per rank (pJ)
system.mem_ctrls0_0.actBackEnergy           368744400                       # Energy for active background per rank (pJ)
system.mem_ctrls0_0.preBackEnergy            80960160                       # Energy for precharge background per rank (pJ)
system.mem_ctrls0_0.actPowerDownEnergy     3856568700                       # Energy for active power-down per rank (pJ)
system.mem_ctrls0_0.prePowerDownEnergy     1623359520                       # Energy for precharge power-down per rank (pJ)
system.mem_ctrls0_0.selfRefreshEnergy    213615888315                       # Energy for self refresh per rank (pJ)
system.mem_ctrls0_0.totalEnergy          221003031825                       # Total energy per rank (pJ)
system.mem_ctrls0_0.averagePower           244.843109                       # Core power per rank (mW)
system.mem_ctrls0_0.totalIdleTime        893155097830                       # Total Idle time Per DRAM Rank
system.mem_ctrls0_0.memoryStateTime::IDLE    157960117                       # Time in different power states
system.mem_ctrls0_0.memoryStateTime::REF    580442000                       # Time in different power states
system.mem_ctrls0_0.memoryStateTime::SREF 888926558087                       # Time in different power states
system.mem_ctrls0_0.memoryStateTime::PRE_PDN   4227498159                       # Time in different power states
system.mem_ctrls0_0.memoryStateTime::ACT    281372446                       # Time in different power states
system.mem_ctrls0_0.memoryStateTime::ACT_PDN   8457380778                       # Time in different power states
system.mem_ctrls0_1.actEnergy                15429540                       # Energy for activate commands per rank (pJ)
system.mem_ctrls0_1.preEnergy                 8200995                       # Energy for precharge commands per rank (pJ)
system.mem_ctrls0_1.readEnergy               71321460                       # Energy for read commands per rank (pJ)
system.mem_ctrls0_1.writeEnergy                     0                       # Energy for write commands per rank (pJ)
system.mem_ctrls0_1.refreshEnergy        1333154160.000000                       # Energy for refresh commands per rank (pJ)
system.mem_ctrls0_1.actBackEnergy           372757200                       # Energy for active background per rank (pJ)
system.mem_ctrls0_1.preBackEnergy            73433280                       # Energy for precharge background per rank (pJ)
system.mem_ctrls0_1.actPowerDownEnergy     3874761390                       # Energy for active power-down per rank (pJ)
system.mem_ctrls0_1.prePowerDownEnergy     1512507840                       # Energy for precharge power-down per rank (pJ)
system.mem_ctrls0_1.selfRefreshEnergy    213667055400                       # Energy for self refresh per rank (pJ)
system.mem_ctrls0_1.totalEnergy          220928621265                       # Total energy per rank (pJ)
system.mem_ctrls0_1.averagePower           244.760671                       # Core power per rank (mW)
system.mem_ctrls0_1.totalIdleTime        900891687222                       # Total Idle time Per DRAM Rank
system.mem_ctrls0_1.memoryStateTime::IDLE    140183809                       # Time in different power states
system.mem_ctrls0_1.memoryStateTime::REF    566808000                       # Time in different power states
system.mem_ctrls0_1.memoryStateTime::SREF 889186438087                       # Time in different power states
system.mem_ctrls0_1.memoryStateTime::PRE_PDN   3938834170                       # Time in different power states
system.mem_ctrls0_1.memoryStateTime::ACT    301678766                       # Time in different power states
system.mem_ctrls0_1.memoryStateTime::ACT_PDN   8497268755                       # Time in different power states
system.mem_ctrls1.pwrStateResidencyTicks::UNDEFINED 267305261343489                       # Cumulative time (in ticks) in various power states
system.mem_ctrls1.bytes_read::cpu.inst             64                       # Number of bytes read from this memory
system.mem_ctrls1.bytes_read::switch_cpus.inst         8192                       # Number of bytes read from this memory
system.mem_ctrls1.bytes_read::switch_cpus.data       989760                       # Number of bytes read from this memory
system.mem_ctrls1.bytes_read::switch_cpus_1.inst          704                       # Number of bytes read from this memory
system.mem_ctrls1.bytes_read::switch_cpus_1.data       243136                       # Number of bytes read from this memory
system.mem_ctrls1.bytes_read::total           1241856                       # Number of bytes read from this memory
system.mem_ctrls1.bytes_inst_read::cpu.inst           64                       # Number of instructions bytes read from this memory
system.mem_ctrls1.bytes_inst_read::switch_cpus.inst         8192                       # Number of instructions bytes read from this memory
system.mem_ctrls1.bytes_inst_read::switch_cpus_1.inst          704                       # Number of instructions bytes read from this memory
system.mem_ctrls1.bytes_inst_read::total         8960                       # Number of instructions bytes read from this memory
system.mem_ctrls1.num_reads::cpu.inst               1                       # Number of read requests responded to by this memory
system.mem_ctrls1.num_reads::switch_cpus.inst          128                       # Number of read requests responded to by this memory
system.mem_ctrls1.num_reads::switch_cpus.data        15465                       # Number of read requests responded to by this memory
system.mem_ctrls1.num_reads::switch_cpus_1.inst           11                       # Number of read requests responded to by this memory
system.mem_ctrls1.num_reads::switch_cpus_1.data         3799                       # Number of read requests responded to by this memory
system.mem_ctrls1.num_reads::total              19404                       # Number of read requests responded to by this memory
system.mem_ctrls1.bw_read::cpu.inst                71                       # Total read bandwidth from this memory (bytes/s)
system.mem_ctrls1.bw_read::switch_cpus.inst         9076                       # Total read bandwidth from this memory (bytes/s)
system.mem_ctrls1.bw_read::switch_cpus.data      1096528                       # Total read bandwidth from this memory (bytes/s)
system.mem_ctrls1.bw_read::switch_cpus_1.inst          780                       # Total read bandwidth from this memory (bytes/s)
system.mem_ctrls1.bw_read::switch_cpus_1.data       269364                       # Total read bandwidth from this memory (bytes/s)
system.mem_ctrls1.bw_read::total              1375818                       # Total read bandwidth from this memory (bytes/s)
system.mem_ctrls1.bw_inst_read::cpu.inst           71                       # Instruction read bandwidth from this memory (bytes/s)
system.mem_ctrls1.bw_inst_read::switch_cpus.inst         9076                       # Instruction read bandwidth from this memory (bytes/s)
system.mem_ctrls1.bw_inst_read::switch_cpus_1.inst          780                       # Instruction read bandwidth from this memory (bytes/s)
system.mem_ctrls1.bw_inst_read::total            9927                       # Instruction read bandwidth from this memory (bytes/s)
system.mem_ctrls1.bw_total::cpu.inst               71                       # Total bandwidth to/from this memory (bytes/s)
system.mem_ctrls1.bw_total::switch_cpus.inst         9076                       # Total bandwidth to/from this memory (bytes/s)
system.mem_ctrls1.bw_total::switch_cpus.data      1096528                       # Total bandwidth to/from this memory (bytes/s)
system.mem_ctrls1.bw_total::switch_cpus_1.inst          780                       # Total bandwidth to/from this memory (bytes/s)
system.mem_ctrls1.bw_total::switch_cpus_1.data       269364                       # Total bandwidth to/from this memory (bytes/s)
system.mem_ctrls1.bw_total::total             1375818                       # Total bandwidth to/from this memory (bytes/s)
system.mem_ctrls1.readReqs                      19404                       # Number of read requests accepted
system.mem_ctrls1.writeReqs                         0                       # Number of write requests accepted
system.mem_ctrls1.readBursts                    19404                       # Number of DRAM read bursts, including those serviced by the write queue
system.mem_ctrls1.writeBursts                       0                       # Number of DRAM write bursts, including those merged in the write queue
system.mem_ctrls1.bytesReadDRAM               1241856                       # Total number of bytes read from DRAM
system.mem_ctrls1.bytesReadWrQ                      0                       # Total number of bytes read from write queue
system.mem_ctrls1.bytesWritten                      0                       # Total number of bytes written to DRAM
system.mem_ctrls1.bytesReadSys                1241856                       # Total read bytes from the system interface side
system.mem_ctrls1.bytesWrittenSys                   0                       # Total written bytes from the system interface side
system.mem_ctrls1.servicedByWrQ                     0                       # Number of DRAM read bursts serviced by the write queue
system.mem_ctrls1.mergedWrBursts                    0                       # Number of DRAM write bursts merged with an existing one
system.mem_ctrls1.neitherReadNorWriteReqs            0                       # Number of requests that are neither read nor write
system.mem_ctrls1.perBankRdBursts::0             1152                       # Per bank write bursts
system.mem_ctrls1.perBankRdBursts::1             1193                       # Per bank write bursts
system.mem_ctrls1.perBankRdBursts::2             1154                       # Per bank write bursts
system.mem_ctrls1.perBankRdBursts::3             1158                       # Per bank write bursts
system.mem_ctrls1.perBankRdBursts::4             1152                       # Per bank write bursts
system.mem_ctrls1.perBankRdBursts::5             1152                       # Per bank write bursts
system.mem_ctrls1.perBankRdBursts::6             1184                       # Per bank write bursts
system.mem_ctrls1.perBankRdBursts::7             1273                       # Per bank write bursts
system.mem_ctrls1.perBankRdBursts::8             1335                       # Per bank write bursts
system.mem_ctrls1.perBankRdBursts::9             1393                       # Per bank write bursts
system.mem_ctrls1.perBankRdBursts::10            1292                       # Per bank write bursts
system.mem_ctrls1.perBankRdBursts::11            1116                       # Per bank write bursts
system.mem_ctrls1.perBankRdBursts::12            1160                       # Per bank write bursts
system.mem_ctrls1.perBankRdBursts::13            1159                       # Per bank write bursts
system.mem_ctrls1.perBankRdBursts::14            1280                       # Per bank write bursts
system.mem_ctrls1.perBankRdBursts::15            1251                       # Per bank write bursts
system.mem_ctrls1.perBankWrBursts::0                0                       # Per bank write bursts
system.mem_ctrls1.perBankWrBursts::1                0                       # Per bank write bursts
system.mem_ctrls1.perBankWrBursts::2                0                       # Per bank write bursts
system.mem_ctrls1.perBankWrBursts::3                0                       # Per bank write bursts
system.mem_ctrls1.perBankWrBursts::4                0                       # Per bank write bursts
system.mem_ctrls1.perBankWrBursts::5                0                       # Per bank write bursts
system.mem_ctrls1.perBankWrBursts::6                0                       # Per bank write bursts
system.mem_ctrls1.perBankWrBursts::7                0                       # Per bank write bursts
system.mem_ctrls1.perBankWrBursts::8                0                       # Per bank write bursts
system.mem_ctrls1.perBankWrBursts::9                0                       # Per bank write bursts
system.mem_ctrls1.perBankWrBursts::10               0                       # Per bank write bursts
system.mem_ctrls1.perBankWrBursts::11               0                       # Per bank write bursts
system.mem_ctrls1.perBankWrBursts::12               0                       # Per bank write bursts
system.mem_ctrls1.perBankWrBursts::13               0                       # Per bank write bursts
system.mem_ctrls1.perBankWrBursts::14               0                       # Per bank write bursts
system.mem_ctrls1.perBankWrBursts::15               0                       # Per bank write bursts
system.mem_ctrls1.numRdRetry                        0                       # Number of times read queue was full causing retry
system.mem_ctrls1.numWrRetry                        0                       # Number of times write queue was full causing retry
system.mem_ctrls1.totGap                 901886791086                       # Total gap between requests
system.mem_ctrls1.readPktSize::0                    0                       # Read request sizes (log2)
system.mem_ctrls1.readPktSize::1                    0                       # Read request sizes (log2)
system.mem_ctrls1.readPktSize::2                    0                       # Read request sizes (log2)
system.mem_ctrls1.readPktSize::3                    0                       # Read request sizes (log2)
system.mem_ctrls1.readPktSize::4                    0                       # Read request sizes (log2)
system.mem_ctrls1.readPktSize::5                    0                       # Read request sizes (log2)
system.mem_ctrls1.readPktSize::6                19404                       # Read request sizes (log2)
system.mem_ctrls1.writePktSize::0                   0                       # Write request sizes (log2)
system.mem_ctrls1.writePktSize::1                   0                       # Write request sizes (log2)
system.mem_ctrls1.writePktSize::2                   0                       # Write request sizes (log2)
system.mem_ctrls1.writePktSize::3                   0                       # Write request sizes (log2)
system.mem_ctrls1.writePktSize::4                   0                       # Write request sizes (log2)
system.mem_ctrls1.writePktSize::5                   0                       # Write request sizes (log2)
system.mem_ctrls1.writePktSize::6                   0                       # Write request sizes (log2)
system.mem_ctrls1.rdQLenPdf::0                  18728                       # What read queue length does an incoming req see
system.mem_ctrls1.rdQLenPdf::1                    676                       # What read queue length does an incoming req see
system.mem_ctrls1.rdQLenPdf::2                      0                       # What read queue length does an incoming req see
system.mem_ctrls1.rdQLenPdf::3                      0                       # What read queue length does an incoming req see
system.mem_ctrls1.rdQLenPdf::4                      0                       # What read queue length does an incoming req see
system.mem_ctrls1.rdQLenPdf::5                      0                       # What read queue length does an incoming req see
system.mem_ctrls1.rdQLenPdf::6                      0                       # What read queue length does an incoming req see
system.mem_ctrls1.rdQLenPdf::7                      0                       # What read queue length does an incoming req see
system.mem_ctrls1.rdQLenPdf::8                      0                       # What read queue length does an incoming req see
system.mem_ctrls1.rdQLenPdf::9                      0                       # What read queue length does an incoming req see
system.mem_ctrls1.rdQLenPdf::10                     0                       # What read queue length does an incoming req see
system.mem_ctrls1.rdQLenPdf::11                     0                       # What read queue length does an incoming req see
system.mem_ctrls1.rdQLenPdf::12                     0                       # What read queue length does an incoming req see
system.mem_ctrls1.rdQLenPdf::13                     0                       # What read queue length does an incoming req see
system.mem_ctrls1.rdQLenPdf::14                     0                       # What read queue length does an incoming req see
system.mem_ctrls1.rdQLenPdf::15                     0                       # What read queue length does an incoming req see
system.mem_ctrls1.rdQLenPdf::16                     0                       # What read queue length does an incoming req see
system.mem_ctrls1.rdQLenPdf::17                     0                       # What read queue length does an incoming req see
system.mem_ctrls1.rdQLenPdf::18                     0                       # What read queue length does an incoming req see
system.mem_ctrls1.rdQLenPdf::19                     0                       # What read queue length does an incoming req see
system.mem_ctrls1.rdQLenPdf::20                     0                       # What read queue length does an incoming req see
system.mem_ctrls1.rdQLenPdf::21                     0                       # What read queue length does an incoming req see
system.mem_ctrls1.rdQLenPdf::22                     0                       # What read queue length does an incoming req see
system.mem_ctrls1.rdQLenPdf::23                     0                       # What read queue length does an incoming req see
system.mem_ctrls1.rdQLenPdf::24                     0                       # What read queue length does an incoming req see
system.mem_ctrls1.rdQLenPdf::25                     0                       # What read queue length does an incoming req see
system.mem_ctrls1.rdQLenPdf::26                     0                       # What read queue length does an incoming req see
system.mem_ctrls1.rdQLenPdf::27                     0                       # What read queue length does an incoming req see
system.mem_ctrls1.rdQLenPdf::28                     0                       # What read queue length does an incoming req see
system.mem_ctrls1.rdQLenPdf::29                     0                       # What read queue length does an incoming req see
system.mem_ctrls1.rdQLenPdf::30                     0                       # What read queue length does an incoming req see
system.mem_ctrls1.rdQLenPdf::31                     0                       # What read queue length does an incoming req see
system.mem_ctrls1.wrQLenPdf::0                      0                       # What write queue length does an incoming req see
system.mem_ctrls1.wrQLenPdf::1                      0                       # What write queue length does an incoming req see
system.mem_ctrls1.wrQLenPdf::2                      0                       # What write queue length does an incoming req see
system.mem_ctrls1.wrQLenPdf::3                      0                       # What write queue length does an incoming req see
system.mem_ctrls1.wrQLenPdf::4                      0                       # What write queue length does an incoming req see
system.mem_ctrls1.wrQLenPdf::5                      0                       # What write queue length does an incoming req see
system.mem_ctrls1.wrQLenPdf::6                      0                       # What write queue length does an incoming req see
system.mem_ctrls1.wrQLenPdf::7                      0                       # What write queue length does an incoming req see
system.mem_ctrls1.wrQLenPdf::8                      0                       # What write queue length does an incoming req see
system.mem_ctrls1.wrQLenPdf::9                      0                       # What write queue length does an incoming req see
system.mem_ctrls1.wrQLenPdf::10                     0                       # What write queue length does an incoming req see
system.mem_ctrls1.wrQLenPdf::11                     0                       # What write queue length does an incoming req see
system.mem_ctrls1.wrQLenPdf::12                     0                       # What write queue length does an incoming req see
system.mem_ctrls1.wrQLenPdf::13                     0                       # What write queue length does an incoming req see
system.mem_ctrls1.wrQLenPdf::14                     0                       # What write queue length does an incoming req see
system.mem_ctrls1.wrQLenPdf::15                     0                       # What write queue length does an incoming req see
system.mem_ctrls1.wrQLenPdf::16                     0                       # What write queue length does an incoming req see
system.mem_ctrls1.wrQLenPdf::17                     0                       # What write queue length does an incoming req see
system.mem_ctrls1.wrQLenPdf::18                     0                       # What write queue length does an incoming req see
system.mem_ctrls1.wrQLenPdf::19                     0                       # What write queue length does an incoming req see
system.mem_ctrls1.wrQLenPdf::20                     0                       # What write queue length does an incoming req see
system.mem_ctrls1.wrQLenPdf::21                     0                       # What write queue length does an incoming req see
system.mem_ctrls1.wrQLenPdf::22                     0                       # What write queue length does an incoming req see
system.mem_ctrls1.wrQLenPdf::23                     0                       # What write queue length does an incoming req see
system.mem_ctrls1.wrQLenPdf::24                     0                       # What write queue length does an incoming req see
system.mem_ctrls1.wrQLenPdf::25                     0                       # What write queue length does an incoming req see
system.mem_ctrls1.wrQLenPdf::26                     0                       # What write queue length does an incoming req see
system.mem_ctrls1.wrQLenPdf::27                     0                       # What write queue length does an incoming req see
system.mem_ctrls1.wrQLenPdf::28                     0                       # What write queue length does an incoming req see
system.mem_ctrls1.wrQLenPdf::29                     0                       # What write queue length does an incoming req see
system.mem_ctrls1.wrQLenPdf::30                     0                       # What write queue length does an incoming req see
system.mem_ctrls1.wrQLenPdf::31                     0                       # What write queue length does an incoming req see
system.mem_ctrls1.wrQLenPdf::32                     0                       # What write queue length does an incoming req see
system.mem_ctrls1.wrQLenPdf::33                     0                       # What write queue length does an incoming req see
system.mem_ctrls1.wrQLenPdf::34                     0                       # What write queue length does an incoming req see
system.mem_ctrls1.wrQLenPdf::35                     0                       # What write queue length does an incoming req see
system.mem_ctrls1.wrQLenPdf::36                     0                       # What write queue length does an incoming req see
system.mem_ctrls1.wrQLenPdf::37                     0                       # What write queue length does an incoming req see
system.mem_ctrls1.wrQLenPdf::38                     0                       # What write queue length does an incoming req see
system.mem_ctrls1.wrQLenPdf::39                     0                       # What write queue length does an incoming req see
system.mem_ctrls1.wrQLenPdf::40                     0                       # What write queue length does an incoming req see
system.mem_ctrls1.wrQLenPdf::41                     0                       # What write queue length does an incoming req see
system.mem_ctrls1.wrQLenPdf::42                     0                       # What write queue length does an incoming req see
system.mem_ctrls1.wrQLenPdf::43                     0                       # What write queue length does an incoming req see
system.mem_ctrls1.wrQLenPdf::44                     0                       # What write queue length does an incoming req see
system.mem_ctrls1.wrQLenPdf::45                     0                       # What write queue length does an incoming req see
system.mem_ctrls1.wrQLenPdf::46                     0                       # What write queue length does an incoming req see
system.mem_ctrls1.wrQLenPdf::47                     0                       # What write queue length does an incoming req see
system.mem_ctrls1.wrQLenPdf::48                     0                       # What write queue length does an incoming req see
system.mem_ctrls1.wrQLenPdf::49                     0                       # What write queue length does an incoming req see
system.mem_ctrls1.wrQLenPdf::50                     0                       # What write queue length does an incoming req see
system.mem_ctrls1.wrQLenPdf::51                     0                       # What write queue length does an incoming req see
system.mem_ctrls1.wrQLenPdf::52                     0                       # What write queue length does an incoming req see
system.mem_ctrls1.wrQLenPdf::53                     0                       # What write queue length does an incoming req see
system.mem_ctrls1.wrQLenPdf::54                     0                       # What write queue length does an incoming req see
system.mem_ctrls1.wrQLenPdf::55                     0                       # What write queue length does an incoming req see
system.mem_ctrls1.wrQLenPdf::56                     0                       # What write queue length does an incoming req see
system.mem_ctrls1.wrQLenPdf::57                     0                       # What write queue length does an incoming req see
system.mem_ctrls1.wrQLenPdf::58                     0                       # What write queue length does an incoming req see
system.mem_ctrls1.wrQLenPdf::59                     0                       # What write queue length does an incoming req see
system.mem_ctrls1.wrQLenPdf::60                     0                       # What write queue length does an incoming req see
system.mem_ctrls1.wrQLenPdf::61                     0                       # What write queue length does an incoming req see
system.mem_ctrls1.wrQLenPdf::62                     0                       # What write queue length does an incoming req see
system.mem_ctrls1.wrQLenPdf::63                     0                       # What write queue length does an incoming req see
system.mem_ctrls1.bytesPerActivate::samples         4469                       # Bytes accessed per row activation
system.mem_ctrls1.bytesPerActivate::mean   277.882300                       # Bytes accessed per row activation
system.mem_ctrls1.bytesPerActivate::gmean   205.534920                       # Bytes accessed per row activation
system.mem_ctrls1.bytesPerActivate::stdev   204.574361                       # Bytes accessed per row activation
system.mem_ctrls1.bytesPerActivate::0-127         1059     23.70%     23.70% # Bytes accessed per row activation
system.mem_ctrls1.bytesPerActivate::128-255         1053     23.56%     47.26% # Bytes accessed per row activation
system.mem_ctrls1.bytesPerActivate::256-383          487     10.90%     58.16% # Bytes accessed per row activation
system.mem_ctrls1.bytesPerActivate::384-511         1334     29.85%     88.01% # Bytes accessed per row activation
system.mem_ctrls1.bytesPerActivate::512-639          391      8.75%     96.76% # Bytes accessed per row activation
system.mem_ctrls1.bytesPerActivate::640-767           12      0.27%     97.02% # Bytes accessed per row activation
system.mem_ctrls1.bytesPerActivate::768-895           13      0.29%     97.31% # Bytes accessed per row activation
system.mem_ctrls1.bytesPerActivate::896-1023           10      0.22%     97.54% # Bytes accessed per row activation
system.mem_ctrls1.bytesPerActivate::1024-1151          110      2.46%    100.00% # Bytes accessed per row activation
system.mem_ctrls1.bytesPerActivate::total         4469                       # Bytes accessed per row activation
system.mem_ctrls1.totQLat                   783411494                       # Total ticks spent queuing
system.mem_ctrls1.totMemAccLat             1147236494                       # Total ticks spent from burst creation until serviced by the DRAM
system.mem_ctrls1.totBusLat                  97020000                       # Total ticks spent in databus transfers
system.mem_ctrls1.avgQLat                    40373.71                       # Average queueing delay per DRAM burst
system.mem_ctrls1.avgBusLat                   5000.00                       # Average bus latency per DRAM burst
system.mem_ctrls1.avgMemAccLat               59123.71                       # Average memory access latency per DRAM burst
system.mem_ctrls1.avgRdBW                        1.38                       # Average DRAM read bandwidth in MiByte/s
system.mem_ctrls1.avgWrBW                        0.00                       # Average achieved write bandwidth in MiByte/s
system.mem_ctrls1.avgRdBWSys                     1.38                       # Average system read bandwidth in MiByte/s
system.mem_ctrls1.avgWrBWSys                     0.00                       # Average system write bandwidth in MiByte/s
system.mem_ctrls1.peakBW                     12800.00                       # Theoretical peak bandwidth in MiByte/s
system.mem_ctrls1.busUtil                        0.01                       # Data bus utilization in percentage
system.mem_ctrls1.busUtilRead                    0.01                       # Data bus utilization in percentage for reads
system.mem_ctrls1.busUtilWrite                   0.00                       # Data bus utilization in percentage for writes
system.mem_ctrls1.avgRdQLen                      1.02                       # Average read queue length when enqueuing
system.mem_ctrls1.avgWrQLen                      0.00                       # Average write queue length when enqueuing
system.mem_ctrls1.readRowHits                   14935                       # Number of row buffer hits during reads
system.mem_ctrls1.writeRowHits                      0                       # Number of row buffer hits during writes
system.mem_ctrls1.readRowHitRate                76.97                       # Row buffer hit rate for reads
system.mem_ctrls1.writeRowHitRate                 nan                       # Row buffer hit rate for writes
system.mem_ctrls1.avgGap                  46479426.46                       # Average gap between requests
system.mem_ctrls1.pageHitRate                   76.97                       # Row buffer hit rate, read and write combined
system.mem_ctrls1_0.actEnergy                16414860                       # Energy for activate commands per rank (pJ)
system.mem_ctrls1_0.preEnergy                 8724705                       # Energy for precharge commands per rank (pJ)
system.mem_ctrls1_0.readEnergy               67244520                       # Energy for read commands per rank (pJ)
system.mem_ctrls1_0.writeEnergy                     0                       # Energy for write commands per rank (pJ)
system.mem_ctrls1_0.refreshEnergy        1362656880.000000                       # Energy for refresh commands per rank (pJ)
system.mem_ctrls1_0.actBackEnergy           367566210                       # Energy for active background per rank (pJ)
system.mem_ctrls1_0.preBackEnergy            81779040                       # Energy for precharge background per rank (pJ)
system.mem_ctrls1_0.actPowerDownEnergy     3857187150                       # Energy for active power-down per rank (pJ)
system.mem_ctrls1_0.prePowerDownEnergy     1625074080                       # Energy for precharge power-down per rank (pJ)
system.mem_ctrls1_0.selfRefreshEnergy    213611750700                       # Energy for self refresh per rank (pJ)
system.mem_ctrls1_0.totalEnergy          220998398145                       # Total energy per rank (pJ)
system.mem_ctrls1_0.averagePower           244.837975                       # Core power per rank (mW)
system.mem_ctrls1_0.totalIdleTime        893155214600                       # Total Idle time Per DRAM Rank
system.mem_ctrls1_0.memoryStateTime::IDLE    159752750                       # Time in different power states
system.mem_ctrls1_0.memoryStateTime::REF    579378000                       # Time in different power states
system.mem_ctrls1_0.memoryStateTime::SREF 888921451837                       # Time in different power states
system.mem_ctrls1_0.memoryStateTime::PRE_PDN   4231985678                       # Time in different power states
system.mem_ctrls1_0.memoryStateTime::ACT    279901003                       # Time in different power states
system.mem_ctrls1_0.memoryStateTime::ACT_PDN   8458742319                       # Time in different power states
system.mem_ctrls1_1.actEnergy                15493800                       # Energy for activate commands per rank (pJ)
system.mem_ctrls1_1.preEnergy                 8235150                       # Energy for precharge commands per rank (pJ)
system.mem_ctrls1_1.readEnergy               71300040                       # Energy for read commands per rank (pJ)
system.mem_ctrls1_1.writeEnergy                     0                       # Energy for write commands per rank (pJ)
system.mem_ctrls1_1.refreshEnergy        1317788160.000000                       # Energy for refresh commands per rank (pJ)
system.mem_ctrls1_1.actBackEnergy           373088370                       # Energy for active background per rank (pJ)
system.mem_ctrls1_1.preBackEnergy            72595680                       # Energy for precharge background per rank (pJ)
system.mem_ctrls1_1.actPowerDownEnergy     3840081450                       # Energy for active power-down per rank (pJ)
system.mem_ctrls1_1.prePowerDownEnergy     1487002560                       # Energy for precharge power-down per rank (pJ)
system.mem_ctrls1_1.selfRefreshEnergy    213697732320                       # Energy for self refresh per rank (pJ)
system.mem_ctrls1_1.totalEnergy          220883317530                       # Total energy per rank (pJ)
system.mem_ctrls1_1.averagePower           244.710481                       # Core power per rank (mW)
system.mem_ctrls1_1.totalIdleTime        900892997264                       # Total Idle time Per DRAM Rank
system.mem_ctrls1_1.memoryStateTime::IDLE    138527224                       # Time in different power states
system.mem_ctrls1_1.memoryStateTime::REF    560254000                       # Time in different power states
system.mem_ctrls1_1.memoryStateTime::SREF 889330342587                       # Time in different power states
system.mem_ctrls1_1.memoryStateTime::PRE_PDN   3872372449                       # Time in different power states
system.mem_ctrls1_1.memoryStateTime::ACT    308572649                       # Time in different power states
system.mem_ctrls1_1.memoryStateTime::ACT_PDN   8421142678                       # Time in different power states
system.pwrStateResidencyTicks::UNDEFINED 267305261343489                       # Cumulative time (in ticks) in various power states
system.cpu.branchPred.lookups                       2                       # Number of BP lookups
system.cpu.branchPred.condPredicted                 2                       # Number of conditional branches predicted
system.cpu.branchPred.condIncorrect                 1                       # Number of conditional branches incorrect
system.cpu.branchPred.BTBLookups                    0                       # Number of BTB lookups
system.cpu.branchPred.BTBHits                       0                       # Number of BTB hits
system.cpu.branchPred.BTBCorrect                    0                       # Number of correct BTB predictions (this stat may not work properly.
system.cpu.branchPred.BTBHitPct                   nan                       # BTB Hit Percentage
system.cpu.branchPred.usedRAS                       0                       # Number of times the RAS was used to get a target.
system.cpu.branchPred.RASInCorrect                  0                       # Number of incorrect RAS predictions.
system.cpu.branchPred.indirectLookups               0                       # Number of indirect predictor lookups.
system.cpu.branchPred.indirectHits                  0                       # Number of indirect target hits.
system.cpu.branchPred.indirectMisses                0                       # Number of indirect misses.
system.cpu.branchPredindirectMispredicted            0                       # Number of mispredicted indirect branches.
system.cpu_voltage_domain.voltage                   1                       # Voltage in Volts
system.cpu_clk_domain.clock                       333                       # Clock period in ticks
system.cpu.dtb.fetch_hits                           0                       # ITB hits
system.cpu.dtb.fetch_misses                         0                       # ITB misses
system.cpu.dtb.fetch_acv                            0                       # ITB acv
system.cpu.dtb.fetch_accesses                       0                       # ITB accesses
system.cpu.dtb.read_hits                            1                       # DTB read hits
system.cpu.dtb.read_misses                          0                       # DTB read misses
system.cpu.dtb.read_acv                             0                       # DTB read access violations
system.cpu.dtb.read_accesses                        1                       # DTB read accesses
system.cpu.dtb.write_hits                           0                       # DTB write hits
system.cpu.dtb.write_misses                         0                       # DTB write misses
system.cpu.dtb.write_acv                            0                       # DTB write access violations
system.cpu.dtb.write_accesses                       0                       # DTB write accesses
system.cpu.dtb.data_hits                            1                       # DTB hits
system.cpu.dtb.data_misses                          0                       # DTB misses
system.cpu.dtb.data_acv                             0                       # DTB access violations
system.cpu.dtb.data_accesses                        1                       # DTB accesses
system.cpu.itb.fetch_hits                           4                       # ITB hits
system.cpu.itb.fetch_misses                         0                       # ITB misses
system.cpu.itb.fetch_acv                            0                       # ITB acv
system.cpu.itb.fetch_accesses                       4                       # ITB accesses
system.cpu.itb.read_hits                            0                       # DTB read hits
system.cpu.itb.read_misses                          0                       # DTB read misses
system.cpu.itb.read_acv                             0                       # DTB read access violations
system.cpu.itb.read_accesses                        0                       # DTB read accesses
system.cpu.itb.write_hits                           0                       # DTB write hits
system.cpu.itb.write_misses                         0                       # DTB write misses
system.cpu.itb.write_acv                            0                       # DTB write access violations
system.cpu.itb.write_accesses                       0                       # DTB write accesses
system.cpu.itb.data_hits                            0                       # DTB hits
system.cpu.itb.data_misses                          0                       # DTB misses
system.cpu.itb.data_acv                             0                       # DTB access violations
system.cpu.itb.data_accesses                        0                       # DTB accesses
system.cpu.workload.num_syscalls                    0                       # Number of system calls
system.cpu.pwrStateResidencyTicks::ON    902631211587                       # Cumulative time (in ticks) in various power states
system.cpu.numCycles                              293                       # number of cpu cycles simulated
system.cpu.numWorkItemsStarted                      0                       # number of work items this cpu started
system.cpu.numWorkItemsCompleted                    0                       # number of work items this cpu completed
system.cpu.fetch.icacheStallCycles                 19                       # Number of cycles fetch is stalled on an Icache miss
system.cpu.fetch.Insts                             16                       # Number of instructions fetch has processed
system.cpu.fetch.Branches                           2                       # Number of branches that fetch encountered
system.cpu.fetch.Cycles                             2                       # Number of cycles fetch has run and was not squashing or blocked
system.cpu.fetch.SquashCycles                       5                       # Number of cycles fetch has spent squashing
system.cpu.fetch.PendingDrainCycles                 6                       # Number of cycles fetch has spent waiting on pipes to drain
system.cpu.fetch.CacheLines                         4                       # Number of cache lines fetched
system.cpu.fetch.IcacheSquashes                     3                       # Number of outstanding Icache misses that were squashed
system.cpu.fetch.rateDist::samples                 29                       # Number of instructions fetched each cycle (Total)
system.cpu.fetch.rateDist::mean              0.551724                       # Number of instructions fetched each cycle (Total)
system.cpu.fetch.rateDist::stdev             2.063046                       # Number of instructions fetched each cycle (Total)
system.cpu.fetch.rateDist::underflows               0      0.00%      0.00% # Number of instructions fetched each cycle (Total)
system.cpu.fetch.rateDist::0                       27     93.10%     93.10% # Number of instructions fetched each cycle (Total)
system.cpu.fetch.rateDist::1                        0      0.00%     93.10% # Number of instructions fetched each cycle (Total)
system.cpu.fetch.rateDist::2                        0      0.00%     93.10% # Number of instructions fetched each cycle (Total)
system.cpu.fetch.rateDist::3                        0      0.00%     93.10% # Number of instructions fetched each cycle (Total)
system.cpu.fetch.rateDist::4                        0      0.00%     93.10% # Number of instructions fetched each cycle (Total)
system.cpu.fetch.rateDist::5                        0      0.00%     93.10% # Number of instructions fetched each cycle (Total)
system.cpu.fetch.rateDist::6                        0      0.00%     93.10% # Number of instructions fetched each cycle (Total)
system.cpu.fetch.rateDist::7                        0      0.00%     93.10% # Number of instructions fetched each cycle (Total)
system.cpu.fetch.rateDist::8                        2      6.90%    100.00% # Number of instructions fetched each cycle (Total)
system.cpu.fetch.rateDist::overflows                0      0.00%    100.00% # Number of instructions fetched each cycle (Total)
system.cpu.fetch.rateDist::min_value                0                       # Number of instructions fetched each cycle (Total)
system.cpu.fetch.rateDist::max_value                8                       # Number of instructions fetched each cycle (Total)
system.cpu.fetch.rateDist::total                   29                       # Number of instructions fetched each cycle (Total)
system.cpu.fetch.branchRate                  0.006826                       # Number of branch fetches per cycle
system.cpu.fetch.rate                        0.054608                       # Number of inst fetches per cycle
system.cpu.decode.IdleCycles                       23                       # Number of cycles decode is idle
system.cpu.decode.BlockedCycles                     1                       # Number of cycles decode is blocked
system.cpu.decode.RunCycles                         2                       # Number of cycles decode is running
system.cpu.decode.SquashCycles                      3                       # Number of cycles decode is squashing
system.cpu.decode.DecodedInsts                     16                       # Number of instructions handled by decode
system.cpu.rename.SquashCycles                      3                       # Number of cycles rename is squashing
system.cpu.rename.IdleCycles                       22                       # Number of cycles rename is idle
system.cpu.rename.BlockCycles                       2                       # Number of cycles rename is blocking
system.cpu.rename.serializeStallCycles              0                       # count of cycles rename stalled for serializing inst
system.cpu.rename.RunCycles                         2                       # Number of cycles rename is running
system.cpu.rename.RenamedInsts                     16                       # Number of instructions processed by rename
system.cpu.rename.RenamedOperands                  13                       # Number of destination operands rename has renamed
system.cpu.rename.RenameLookups                    26                       # Number of register rename lookups that rename has made
system.cpu.rename.int_rename_lookups               12                       # Number of integer rename lookups
system.cpu.rename.fp_rename_lookups                14                       # Number of floating rename lookups
system.cpu.rename.CommittedMaps                     3                       # Number of HB maps that are committed
system.cpu.rename.UndoneMaps                       10                       # Number of HB maps that are undone due to squashing
system.cpu.rename.serializingInsts                  0                       # count of serializing insts renamed
system.cpu.rename.tempSerializingInsts              0                       # count of temporary serializing insts renamed
system.cpu.rename.skidInsts                         0                       # count of insts added to the skid buffer
system.cpu.memDep0.insertedLoads                    1                       # Number of loads inserted to the mem dependence unit.
system.cpu.memDep0.insertedStores                   1                       # Number of stores inserted to the mem dependence unit.
system.cpu.memDep0.conflictingLoads                 0                       # Number of conflicting loads.
system.cpu.memDep0.conflictingStores                0                       # Number of conflicting stores.
system.cpu.iq.iqInstsAdded                         16                       # Number of instructions added to the IQ (excludes non-spec)
system.cpu.iq.iqInstsIssued                         8                       # Number of instructions issued
system.cpu.iq.iqSquashedInstsExamined              13                       # Number of squashed instructions iterated over during squash; mainly for profiling
system.cpu.iq.iqSquashedOperandsExamined           16                       # Number of squashed operands that are examined and possibly removed from graph
system.cpu.iq.issued_per_cycle::samples            29                       # Number of insts issued each cycle
system.cpu.iq.issued_per_cycle::mean         0.275862                       # Number of insts issued each cycle
system.cpu.iq.issued_per_cycle::stdev        0.921821                       # Number of insts issued each cycle
system.cpu.iq.issued_per_cycle::underflows            0      0.00%      0.00% # Number of insts issued each cycle
system.cpu.iq.issued_per_cycle::0                  26     89.66%     89.66% # Number of insts issued each cycle
system.cpu.iq.issued_per_cycle::1                   1      3.45%     93.10% # Number of insts issued each cycle
system.cpu.iq.issued_per_cycle::2                   0      0.00%     93.10% # Number of insts issued each cycle
system.cpu.iq.issued_per_cycle::3                   1      3.45%     96.55% # Number of insts issued each cycle
system.cpu.iq.issued_per_cycle::4                   1      3.45%    100.00% # Number of insts issued each cycle
system.cpu.iq.issued_per_cycle::5                   0      0.00%    100.00% # Number of insts issued each cycle
system.cpu.iq.issued_per_cycle::6                   0      0.00%    100.00% # Number of insts issued each cycle
system.cpu.iq.issued_per_cycle::7                   0      0.00%    100.00% # Number of insts issued each cycle
system.cpu.iq.issued_per_cycle::8                   0      0.00%    100.00% # Number of insts issued each cycle
system.cpu.iq.issued_per_cycle::overflows            0      0.00%    100.00% # Number of insts issued each cycle
system.cpu.iq.issued_per_cycle::min_value            0                       # Number of insts issued each cycle
system.cpu.iq.issued_per_cycle::max_value            4                       # Number of insts issued each cycle
system.cpu.iq.issued_per_cycle::total              29                       # Number of insts issued each cycle
system.cpu.iq.fu_full::No_OpClass                   0                       # attempts to use FU when none available
system.cpu.iq.fu_full::IntAlu                       0                       # attempts to use FU when none available
system.cpu.iq.fu_full::IntMult                      0                       # attempts to use FU when none available
system.cpu.iq.fu_full::IntDiv                       0                       # attempts to use FU when none available
system.cpu.iq.fu_full::FloatAdd                     0                       # attempts to use FU when none available
system.cpu.iq.fu_full::FloatCmp                     0                       # attempts to use FU when none available
[...]
system.switch_cpus_1.iq.fu_busy_rate         0.002927                       # FU busy rate (busy events/executed inst)
system.switch_cpus_1.iq.int_inst_queue_reads    370298707                       # Number of integer instruction queue reads
system.switch_cpus_1.iq.int_inst_queue_writes    130161442                       # Number of integer instruction queue writes
system.switch_cpus_1.iq.int_inst_queue_wakeup_accesses    113830590                       # Number of integer instruction queue wakeup accesses
system.switch_cpus_1.iq.fp_inst_queue_reads    207928166                       # Number of floating instruction queue reads
system.switch_cpus_1.iq.fp_inst_queue_writes    127234151                       # Number of floating instruction queue writes
system.switch_cpus_1.iq.fp_inst_queue_wakeup_accesses    102668528                       # Number of floating instruction queue wakeup accesses
system.switch_cpus_1.iq.int_alu_accesses    114722234                       # Number of integer alu accesses
system.switch_cpus_1.iq.fp_alu_accesses     104240443                       # Number of floating point alu accesses
system.switch_cpus_1.iew.lsq.thread0.forwLoads     13504325                       # Number of loads that had data forwarded from stores
system.switch_cpus_1.iew.lsq.thread0.invAddrLoads            0                       # Number of loads ignored due to an invalid address
system.switch_cpus_1.iew.lsq.thread0.squashedLoads      5017303                       # Number of loads squashed
system.switch_cpus_1.iew.lsq.thread0.ignoredResponses          830                       # Number of memory responses ignored because the instruction is squashed
system.switch_cpus_1.iew.lsq.thread0.memOrderViolation       243514                       # Number of memory ordering violations
system.switch_cpus_1.iew.lsq.thread0.squashedStores      2333582                       # Number of stores squashed
system.switch_cpus_1.iew.lsq.thread0.invAddrSwpfs            0                       # Number of software prefetches ignored due to an invalid address
system.switch_cpus_1.iew.lsq.thread0.blockedLoads            0                       # Number of blocked loads due to partial load-store forwarding
system.switch_cpus_1.iew.lsq.thread0.rescheduledLoads            0                       # Number of loads that were rescheduled
system.switch_cpus_1.iew.lsq.thread0.cacheBlocked          332                       # Number of times an access to memory failed due to the cache being blocked
system.switch_cpus_1.iew.iewIdleCycles              0                       # Number of cycles IEW is idle
system.switch_cpus_1.iew.iewSquashCycles      1118698                       # Number of cycles IEW is squashing
system.switch_cpus_1.iew.iewBlockCycles       3583452                       # Number of cycles IEW is blocking
system.switch_cpus_1.iew.iewUnblockCycles      2057258                       # Number of cycles IEW is unblocking
system.switch_cpus_1.iew.iewDispatchedInsts    228722074                       # Number of instructions dispatched to IQ
system.switch_cpus_1.iew.iewDispSquashedInsts       370862                       # Number of squashed instructions skipped by dispatch
system.switch_cpus_1.iew.iewDispLoadInsts     45110626                       # Number of dispatched load instructions
system.switch_cpus_1.iew.iewDispStoreInsts     18163650                       # Number of dispatched store instructions
system.switch_cpus_1.iew.iewDispNonSpecInsts            0                       # Number of dispatched non-speculative instructions
system.switch_cpus_1.iew.iewIQFullEvents      1776085                       # Number of times the IQ has become full, causing a stall
system.switch_cpus_1.iew.iewLSQFullEvents       262755                       # Number of times the LSQ has become full, causing a stall
system.switch_cpus_1.iew.memOrderViolationEvents       243514                       # Number of memory order violations
system.switch_cpus_1.iew.predictedTakenIncorrect       772102                       # Number of branches that were predicted taken incorrectly
system.switch_cpus_1.iew.predictedNotTakenIncorrect       129205                       # Number of branches that were predicted not taken incorrectly
system.switch_cpus_1.iew.branchMispredicts       901307                       # Number of branch mispredicts detected at execute
system.switch_cpus_1.iew.iewExecutedInsts    217157882                       # Number of executed instructions
system.switch_cpus_1.iew.iewExecLoadInsts     42009678                       # Number of load instructions executed
system.switch_cpus_1.iew.iewExecSquashedInsts      1167984                       # Number of squashed instructions skipped in execute
system.switch_cpus_1.iew.exec_swp                   0                       # number of swp insts executed
system.switch_cpus_1.iew.exec_nop              145960                       # number of nop insts executed
system.switch_cpus_1.iew.exec_refs           58253756                       # number of memory reference insts executed
system.switch_cpus_1.iew.exec_branches       19012132                       # Number of branches executed
system.switch_cpus_1.iew.exec_stores         16244078                       # Number of stores executed
system.switch_cpus_1.iew.exec_rate           1.540923                       # Inst execution rate
system.switch_cpus_1.iew.wb_sent            216587480                       # cumulative count of insts sent to commit
system.switch_cpus_1.iew.wb_count           216499118                       # cumulative count of insts written-back
system.switch_cpus_1.iew.wb_producers       149310091                       # num instructions producing a value
system.switch_cpus_1.iew.wb_consumers       173957607                       # num instructions consuming a value
system.switch_cpus_1.iew.wb_rate             1.536248                       # insts written-back per cycle
system.switch_cpus_1.iew.wb_fanout           0.858313                       # average fanout of values written-back
system.switch_cpus_1.commit.commitSquashedInsts     28599711                       # The number of squashed insts skipped by commit
system.switch_cpus_1.commit.branchMispredicts       876122                       # The number of times a branch was mispredicted
system.switch_cpus_1.commit.committed_per_cycle::samples    136583498                       # Number of insts commited each cycle
system.switch_cpus_1.commit.committed_per_cycle::mean     1.465186                       # Number of insts commited each cycle
system.switch_cpus_1.commit.committed_per_cycle::stdev     2.351299                       # Number of insts commited each cycle
system.switch_cpus_1.commit.committed_per_cycle::underflows            0      0.00%      0.00% # Number of insts commited each cycle
system.switch_cpus_1.commit.committed_per_cycle::0     67488972     49.41%     49.41% # Number of insts commited each cycle
system.switch_cpus_1.commit.committed_per_cycle::1     32180322     23.56%     72.97% # Number of insts commited each cycle
system.switch_cpus_1.commit.committed_per_cycle::2     15528698     11.37%     84.34% # Number of insts commited each cycle
system.switch_cpus_1.commit.committed_per_cycle::3      4345471      3.18%     87.52% # Number of insts commited each cycle
system.switch_cpus_1.commit.committed_per_cycle::4       731375      0.54%     88.06% # Number of insts commited each cycle
system.switch_cpus_1.commit.committed_per_cycle::5       243817      0.18%     88.24% # Number of insts commited each cycle
system.switch_cpus_1.commit.committed_per_cycle::6       618313      0.45%     88.69% # Number of insts commited each cycle
system.switch_cpus_1.commit.committed_per_cycle::7      7580585      5.55%     94.24% # Number of insts commited each cycle
system.switch_cpus_1.commit.committed_per_cycle::8      7865945      5.76%    100.00% # Number of insts commited each cycle
system.switch_cpus_1.commit.committed_per_cycle::overflows            0      0.00%    100.00% # Number of insts commited each cycle
system.switch_cpus_1.commit.committed_per_cycle::min_value            0                       # Number of insts commited each cycle
system.switch_cpus_1.commit.committed_per_cycle::max_value            8                       # Number of insts commited each cycle
system.switch_cpus_1.commit.committed_per_cycle::total    136583498                       # Number of insts commited each cycle
system.switch_cpus_1.commit.committedInsts    200120249                       # Number of instructions committed
system.switch_cpus_1.commit.committedOps    200120249                       # Number of ops (including micro ops) committed
system.switch_cpus_1.commit.swp_count               0                       # Number of s/w prefetches committed
system.switch_cpus_1.commit.refs             55923359                       # Number of memory references committed
system.switch_cpus_1.commit.loads            40093302                       # Number of loads committed
system.switch_cpus_1.commit.membars                 0                       # Number of memory barriers committed
system.switch_cpus_1.commit.branches         17186765                       # Number of branches committed
system.switch_cpus_1.commit.fp_insts         99691955                       # Number of committed floating point instructions.
system.switch_cpus_1.commit.int_insts       155128332                       # Number of committed integer instructions.
system.switch_cpus_1.commit.function_calls        96333                       # Number of function calls committed.
system.switch_cpus_1.commit.op_class_0::No_OpClass       122490      0.06%      0.06% # Class of committed instruction
system.switch_cpus_1.commit.op_class_0::IntAlu     99671542     49.81%     49.87% # Class of committed instruction
system.switch_cpus_1.commit.op_class_0::IntMult         1138      0.00%     49.87% # Class of committed instruction
system.switch_cpus_1.commit.op_class_0::IntDiv            0      0.00%     49.87% # Class of committed instruction
system.switch_cpus_1.commit.op_class_0::FloatAdd     29686667     14.83%     64.70% # Class of committed instruction
system.switch_cpus_1.commit.op_class_0::FloatCmp      1309217      0.65%     65.36% # Class of committed instruction
system.switch_cpus_1.commit.op_class_0::FloatCvt        36077      0.02%     65.37% # Class of committed instruction
system.switch_cpus_1.commit.op_class_0::FloatMult     13322027      6.66%     72.03% # Class of committed instruction
system.switch_cpus_1.commit.op_class_0::FloatMultAcc            0      0.00%     72.03% # Class of committed instruction
system.switch_cpus_1.commit.op_class_0::FloatDiv        47641      0.02%     72.06% # Class of committed instruction
system.switch_cpus_1.commit.op_class_0::FloatMisc            0      0.00%     72.06% # Class of committed instruction
system.switch_cpus_1.commit.op_class_0::FloatSqrt           91      0.00%     72.06% # Class of committed instruction
system.switch_cpus_1.commit.op_class_0::SimdAdd            0      0.00%     72.06% # Class of committed instruction
system.switch_cpus_1.commit.op_class_0::SimdAddAcc            0      0.00%     72.06% # Class of committed instruction
system.switch_cpus_1.commit.op_class_0::SimdAlu            0      0.00%     72.06% # Class of committed instruction
system.switch_cpus_1.commit.op_class_0::SimdCmp            0      0.00%     72.06% # Class of committed instruction
system.switch_cpus_1.commit.op_class_0::SimdCvt            0      0.00%     72.06% # Class of committed instruction
system.switch_cpus_1.commit.op_class_0::SimdMisc            0      0.00%     72.06% # Class of committed instruction
system.switch_cpus_1.commit.op_class_0::SimdMult            0      0.00%     72.06% # Class of committed instruction
system.switch_cpus_1.commit.op_class_0::SimdMultAcc            0      0.00%     72.06% # Class of committed instruction
system.switch_cpus_1.commit.op_class_0::SimdShift            0      0.00%     72.06% # Class of committed instruction
system.switch_cpus_1.commit.op_class_0::SimdShiftAcc            0      0.00%     72.06% # Class of committed instruction
system.switch_cpus_1.commit.op_class_0::SimdSqrt            0      0.00%     72.06% # Class of committed instruction
system.switch_cpus_1.commit.op_class_0::SimdFloatAdd            0      0.00%     72.06% # Class of committed instruction
system.switch_cpus_1.commit.op_class_0::SimdFloatAlu            0      0.00%     72.06% # Class of committed instruction
system.switch_cpus_1.commit.op_class_0::SimdFloatCmp            0      0.00%     72.06% # Class of committed instruction
system.switch_cpus_1.commit.op_class_0::SimdFloatCvt            0      0.00%     72.06% # Class of committed instruction
system.switch_cpus_1.commit.op_class_0::SimdFloatDiv            0      0.00%     72.06% # Class of committed instruction
system.switch_cpus_1.commit.op_class_0::SimdFloatMisc            0      0.00%     72.06% # Class of committed instruction
system.switch_cpus_1.commit.op_class_0::SimdFloatMult            0      0.00%     72.06% # Class of committed instruction
system.switch_cpus_1.commit.op_class_0::SimdFloatMultAcc            0      0.00%     72.06% # Class of committed instruction
system.switch_cpus_1.commit.op_class_0::SimdFloatSqrt            0      0.00%     72.06% # Class of committed instruction
system.switch_cpus_1.commit.op_class_0::MemRead       344010      0.17%     72.23% # Class of committed instruction
system.switch_cpus_1.commit.op_class_0::MemWrite       289114      0.14%     72.37% # Class of committed instruction
system.switch_cpus_1.commit.op_class_0::FloatMemRead     39749292     19.86%     92.23% # Class of committed instruction
system.switch_cpus_1.commit.op_class_0::FloatMemWrite     15540943      7.77%    100.00% # Class of committed instruction
system.switch_cpus_1.commit.op_class_0::IprAccess            0      0.00%    100.00% # Class of committed instruction
system.switch_cpus_1.commit.op_class_0::InstPrefetch            0      0.00%    100.00% # Class of committed instruction
system.switch_cpus_1.commit.op_class_0::total    200120249                       # Class of committed instruction
system.switch_cpus_1.commit.bw_lim_events      7865945                       # number cycles where commit BW limit reached
system.switch_cpus_1.rob.rob_reads          357436291                       # The number of ROB reads
system.switch_cpus_1.rob.rob_writes         461809572                       # The number of ROB writes
system.switch_cpus_1.timesIdled                     1                       # Number of times that the entire CPU went into an idle state and unscheduled itself
system.switch_cpus_1.idleCycles                     1                       # Total number of cycles that the CPU has spent unscheduled due to idling
system.switch_cpus_1.committedInsts         200000001                       # Number of Instructions Simulated
system.switch_cpus_1.committedOps           200000001                       # Number of Ops (including micro ops) Simulated
system.switch_cpus_1.cpi                     0.704636                       # CPI: Cycles Per Instruction
system.switch_cpus_1.cpi_total               0.704636                       # CPI: Total CPI of All Threads
system.switch_cpus_1.ipc                     1.419173                       # IPC: Instructions Per Cycle
system.switch_cpus_1.ipc_total               1.419173                       # IPC: Total IPC of All Threads
system.switch_cpus_1.int_regfile_reads      230610419                       # number of integer regfile reads
system.switch_cpus_1.int_regfile_writes      96030722                       # number of integer regfile writes
system.switch_cpus_1.fp_regfile_reads       106044359                       # number of floating regfile reads
system.switch_cpus_1.fp_regfile_writes       85414700                       # number of floating regfile writes
system.switch_cpus_1.misc_regfile_reads      29719264                       # number of misc regfile reads
system.switch_cpus_1.misc_regfile_writes         1121                       # number of misc regfile writes
system.tol3bus.snoop_filter.tot_requests        74186                       # Total number of requests made to the snoop filter.
system.tol3bus.snoop_filter.hit_single_requests        34872                       # Number of requests hitting in the snoop filter with a single holder of the requested data.
system.tol3bus.snoop_filter.hit_multi_requests            0                       # Number of requests hitting in the snoop filter with multiple (>1) holders of the requested data.
system.tol3bus.snoop_filter.tot_snoops              0                       # Total number of snoops made to the snoop filter.
system.tol3bus.snoop_filter.hit_single_snoops            0                       # Number of snoops hitting in the snoop filter with a single holder of the requested data.
system.tol3bus.snoop_filter.hit_multi_snoops            0                       # Number of snoops hitting in the snoop filter with multiple (>1) holders of the requested data.
system.tol3bus.pwrStateResidencyTicks::UNDEFINED 267305261343489                       # Cumulative time (in ticks) in various power states
system.tol3bus.trans_dist::ReadResp              4687                       # Transaction distribution
system.tol3bus.trans_dist::WritebackDirty        31196                       # Transaction distribution
system.tol3bus.trans_dist::CleanEvict            3676                       # Transaction distribution
system.tol3bus.trans_dist::ReadExReq            34627                       # Transaction distribution
system.tol3bus.trans_dist::ReadExResp           34627                       # Transaction distribution
system.tol3bus.trans_dist::ReadSharedReq         4687                       # Transaction distribution
system.tol3bus.pkt_count_system.cpu.l2.mem_side::system.l3.cpu_side       113500                       # Packet count per connected master and slave (bytes)
system.tol3bus.pkt_size_system.cpu.l2.mem_side::system.l3.cpu_side      4512640                       # Cumulative packet size per connected master and slave (bytes)
system.tol3bus.snoops                               0                       # Total snoops (count)
system.tol3bus.snoopTraffic                         0                       # Total snoop traffic (bytes)
system.tol3bus.snoop_fanout::samples            39314                       # Request fanout histogram
system.tol3bus.snoop_fanout::mean                   0                       # Request fanout histogram
system.tol3bus.snoop_fanout::stdev                  0                       # Request fanout histogram
system.tol3bus.snoop_fanout::underflows             0      0.00%      0.00% # Request fanout histogram
system.tol3bus.snoop_fanout::0                  39314    100.00%    100.00% # Request fanout histogram
system.tol3bus.snoop_fanout::1                      0      0.00%    100.00% # Request fanout histogram
system.tol3bus.snoop_fanout::overflows              0      0.00%    100.00% # Request fanout histogram
system.tol3bus.snoop_fanout::min_value              0                       # Request fanout histogram
system.tol3bus.snoop_fanout::max_value              0                       # Request fanout histogram
system.tol3bus.snoop_fanout::total              39314                       # Request fanout histogram
system.tol3bus.reqLayer0.occupancy           35092206                       # Layer occupancy (ticks)
system.tol3bus.reqLayer0.utilization              0.0                       # Layer utilization (%)
system.tol3bus.respLayer0.occupancy          26183124                       # Layer occupancy (ticks)
system.tol3bus.respLayer0.utilization             0.0                       # Layer utilization (%)

---------- End Simulation Statistics   ----------
