
---------- Begin Simulation Statistics ----------
sim_seconds                                  1.072451                       # Number of seconds simulated
sim_ticks                                1072450558251                       # Number of ticks simulated
final_tick                               31083864719301                       # Number of ticks from beginning of simulation (restored from checkpoints and never reset)
sim_freq                                 1000000000000                       # Frequency of simulated ticks
host_inst_rate                                 534056                       # Simulator instruction rate (inst/s)
host_op_rate                                   534056                       # Simulator op (including micro ops) rate (op/s)
host_tick_rate                              477290645                       # Simulator tick rate (ticks/s)
host_mem_usage                                2425152                       # Number of bytes of host memory used
host_seconds                                  2246.96                       # Real time elapsed on the host
sim_insts                                  1200000007                       # Number of instructions simulated
sim_ops                                    1200000007                       # Number of ops (including micro ops) simulated
system.voltage_domain.voltage                       1                       # Voltage in Volts
system.clk_domain.clock                          1000                       # Clock period in ticks
system.mem_ctrls0.pwrStateResidencyTicks::UNDEFINED 31083864719301                       # Cumulative time (in ticks) in various power states
system.mem_ctrls0.bytes_read::cpu.inst             64                       # Number of bytes read from this memory
system.mem_ctrls0.bytes_read::switch_cpus.inst       138560                       # Number of bytes read from this memory
system.mem_ctrls0.bytes_read::switch_cpus.data      3630976                       # Number of bytes read from this memory
system.mem_ctrls0.bytes_read::switch_cpus_1.inst       129920                       # Number of bytes read from this memory
system.mem_ctrls0.bytes_read::switch_cpus_1.data      1602304                       # Number of bytes read from this memory
system.mem_ctrls0.bytes_read::total           5501824                       # Number of bytes read from this memory
system.mem_ctrls0.bytes_inst_read::cpu.inst           64                       # Number of instructions bytes read from this memory
system.mem_ctrls0.bytes_inst_read::switch_cpus.inst       138560                       # Number of instructions bytes read from this memory
system.mem_ctrls0.bytes_inst_read::switch_cpus_1.inst       129920                       # Number of instructions bytes read from this memory
system.mem_ctrls0.bytes_inst_read::total       268544                       # Number of instructions bytes read from this memory
system.mem_ctrls0.bytes_written::writebacks       735616                       # Number of bytes written to this memory
system.mem_ctrls0.bytes_written::total         735616                       # Number of bytes written to this memory
system.mem_ctrls0.num_reads::cpu.inst               1                       # Number of read requests responded to by this memory
system.mem_ctrls0.num_reads::switch_cpus.inst         2165                       # Number of read requests responded to by this memory
system.mem_ctrls0.num_reads::switch_cpus.data        56734                       # Number of read requests responded to by this memory
system.mem_ctrls0.num_reads::switch_cpus_1.inst         2030                       # Number of read requests responded to by this memory
system.mem_ctrls0.num_reads::switch_cpus_1.data        25036                       # Number of read requests responded to by this memory
system.mem_ctrls0.num_reads::total              85966                       # Number of read requests responded to by this memory
system.mem_ctrls0.num_writes::writebacks        11494                       # Number of write requests responded to by this memory
system.mem_ctrls0.num_writes::total             11494                       # Number of write requests responded to by this memory
system.mem_ctrls0.bw_read::cpu.inst                60                       # Total read bandwidth from this memory (bytes/s)
system.mem_ctrls0.bw_read::switch_cpus.inst       129199                       # Total read bandwidth from this memory (bytes/s)
system.mem_ctrls0.bw_read::switch_cpus.data      3385681                       # Total read bandwidth from this memory (bytes/s)
system.mem_ctrls0.bw_read::switch_cpus_1.inst       121143                       # Total read bandwidth from this memory (bytes/s)
system.mem_ctrls0.bw_read::switch_cpus_1.data      1494059                       # Total read bandwidth from this memory (bytes/s)
system.mem_ctrls0.bw_read::total              5130142                       # Total read bandwidth from this memory (bytes/s)
system.mem_ctrls0.bw_inst_read::cpu.inst           60                       # Instruction read bandwidth from this memory (bytes/s)
system.mem_ctrls0.bw_inst_read::switch_cpus.inst       129199                       # Instruction read bandwidth from this memory (bytes/s)
system.mem_ctrls0.bw_inst_read::switch_cpus_1.inst       121143                       # Instruction read bandwidth from this memory (bytes/s)
system.mem_ctrls0.bw_inst_read::total          250402                       # Instruction read bandwidth from this memory (bytes/s)
system.mem_ctrls0.bw_write::writebacks         685921                       # Write bandwidth from this memory (bytes/s)
system.mem_ctrls0.bw_write::total              685921                       # Write bandwidth from this memory (bytes/s)
system.mem_ctrls0.bw_total::writebacks         685921                       # Total bandwidth to/from this memory (bytes/s)
system.mem_ctrls0.bw_total::cpu.inst               60                       # Total bandwidth to/from this memory (bytes/s)
system.mem_ctrls0.bw_total::switch_cpus.inst       129199                       # Total bandwidth to/from this memory (bytes/s)
system.mem_ctrls0.bw_total::switch_cpus.data      3385681                       # Total bandwidth to/from this memory (bytes/s)
system.mem_ctrls0.bw_total::switch_cpus_1.inst       121143                       # Total bandwidth to/from this memory (bytes/s)
system.mem_ctrls0.bw_total::switch_cpus_1.data      1494059                       # Total bandwidth to/from this memory (bytes/s)
system.mem_ctrls0.bw_total::total             5816063                       # Total bandwidth to/from this memory (bytes/s)
system.mem_ctrls0.readReqs                      85966                       # Number of read requests accepted
system.mem_ctrls0.writeReqs                     11494                       # Number of write requests accepted
system.mem_ctrls0.readBursts                    85966                       # Number of DRAM read bursts, including those serviced by the write queue
system.mem_ctrls0.writeBursts                   11494                       # Number of DRAM write bursts, including those merged in the write queue
system.mem_ctrls0.bytesReadDRAM               5499584                       # Total number of bytes read from DRAM
system.mem_ctrls0.bytesReadWrQ                   2240                       # Total number of bytes read from write queue
system.mem_ctrls0.bytesWritten                 733888                       # Total number of bytes written to DRAM
system.mem_ctrls0.bytesReadSys                5501824                       # Total read bytes from the system interface side
system.mem_ctrls0.bytesWrittenSys              735616                       # Total written bytes from the system interface side
system.mem_ctrls0.servicedByWrQ                    35                       # Number of DRAM read bursts serviced by the write queue
system.mem_ctrls0.mergedWrBursts                    0                       # Number of DRAM write bursts merged with an existing one
system.mem_ctrls0.neitherReadNorWriteReqs            0                       # Number of requests that are neither read nor write
system.mem_ctrls0.perBankRdBursts::0             5362                       # Per bank write bursts
system.mem_ctrls0.perBankRdBursts::1             5413                       # Per bank write bursts
system.mem_ctrls0.perBankRdBursts::2             6051                       # Per bank write bursts
system.mem_ctrls0.perBankRdBursts::3             5706                       # Per bank write bursts
system.mem_ctrls0.perBankRdBursts::4             5193                       # Per bank write bursts
system.mem_ctrls0.perBankRdBursts::5             5321                       # Per bank write bursts
system.mem_ctrls0.perBankRdBursts::6             4863                       # Per bank write bursts
system.mem_ctrls0.perBankRdBursts::7             4937                       # Per bank write bursts
system.mem_ctrls0.perBankRdBursts::8             5030                       # Per bank write bursts
system.mem_ctrls0.perBankRdBursts::9             5141                       # Per bank write bursts
system.mem_ctrls0.perBankRdBursts::10            4974                       # Per bank write bursts
system.mem_ctrls0.perBankRdBursts::11            4801                       # Per bank write bursts
system.mem_ctrls0.perBankRdBursts::12            6071                       # Per bank write bursts
system.mem_ctrls0.perBankRdBursts::13            5582                       # Per bank write bursts
system.mem_ctrls0.perBankRdBursts::14            5676                       # Per bank write bursts
system.mem_ctrls0.perBankRdBursts::15            5810                       # Per bank write bursts
system.mem_ctrls0.perBankWrBursts::0              708                       # Per bank write bursts
system.mem_ctrls0.perBankWrBursts::1              769                       # Per bank write bursts
system.mem_ctrls0.perBankWrBursts::2              831                       # Per bank write bursts
system.mem_ctrls0.perBankWrBursts::3              729                       # Per bank write bursts
system.mem_ctrls0.perBankWrBursts::4              671                       # Per bank write bursts
system.mem_ctrls0.perBankWrBursts::5              687                       # Per bank write bursts
system.mem_ctrls0.perBankWrBursts::6              533                       # Per bank write bursts
system.mem_ctrls0.perBankWrBursts::7              642                       # Per bank write bursts
system.mem_ctrls0.perBankWrBursts::8              657                       # Per bank write bursts
system.mem_ctrls0.perBankWrBursts::9              554                       # Per bank write bursts
system.mem_ctrls0.perBankWrBursts::10             560                       # Per bank write bursts
system.mem_ctrls0.perBankWrBursts::11             666                       # Per bank write bursts
system.mem_ctrls0.perBankWrBursts::12             958                       # Per bank write bursts
system.mem_ctrls0.perBankWrBursts::13             856                       # Per bank write bursts
system.mem_ctrls0.perBankWrBursts::14             876                       # Per bank write bursts
system.mem_ctrls0.perBankWrBursts::15             770                       # Per bank write bursts
system.mem_ctrls0.numRdRetry                        0                       # Number of times read queue was full causing retry
system.mem_ctrls0.numWrRetry                        0                       # Number of times write queue was full causing retry
system.mem_ctrls0.totGap                 1072450058751                       # Total gap between requests
system.mem_ctrls0.readPktSize::0                    0                       # Read request sizes (log2)
system.mem_ctrls0.readPktSize::1                    0                       # Read request sizes (log2)
system.mem_ctrls0.readPktSize::2                    0                       # Read request sizes (log2)
system.mem_ctrls0.readPktSize::3                    0                       # Read request sizes (log2)
system.mem_ctrls0.readPktSize::4                    0                       # Read request sizes (log2)
system.mem_ctrls0.readPktSize::5                    0                       # Read request sizes (log2)
system.mem_ctrls0.readPktSize::6                85966                       # Read request sizes (log2)
system.mem_ctrls0.writePktSize::0                   0                       # Write request sizes (log2)
system.mem_ctrls0.writePktSize::1                   0                       # Write request sizes (log2)
system.mem_ctrls0.writePktSize::2                   0                       # Write request sizes (log2)
system.mem_ctrls0.writePktSize::3                   0                       # Write request sizes (log2)
system.mem_ctrls0.writePktSize::4                   0                       # Write request sizes (log2)
system.mem_ctrls0.writePktSize::5                   0                       # Write request sizes (log2)
system.mem_ctrls0.writePktSize::6               11494                       # Write request sizes (log2)
system.mem_ctrls0.rdQLenPdf::0                  83300                       # What read queue length does an incoming req see
system.mem_ctrls0.rdQLenPdf::1                   2521                       # What read queue length does an incoming req see
system.mem_ctrls0.rdQLenPdf::2                    103                       # What read queue length does an incoming req see
system.mem_ctrls0.rdQLenPdf::3                      7                       # What read queue length does an incoming req see
system.mem_ctrls0.rdQLenPdf::4                      0                       # What read queue length does an incoming req see
system.mem_ctrls0.rdQLenPdf::5                      0                       # What read queue length does an incoming req see
system.mem_ctrls0.rdQLenPdf::6                      0                       # What read queue length does an incoming req see
system.mem_ctrls0.rdQLenPdf::7                      0                       # What read queue length does an incoming req see
system.mem_ctrls0.rdQLenPdf::8                      0                       # What read queue length does an incoming req see
system.mem_ctrls0.rdQLenPdf::9                      0                       # What read queue length does an incoming req see
system.mem_ctrls0.rdQLenPdf::10                     0                       # What read queue length does an incoming req see
system.mem_ctrls0.rdQLenPdf::11                     0                       # What read queue length does an incoming req see
system.mem_ctrls0.rdQLenPdf::12                     0                       # What read queue length does an incoming req see
system.mem_ctrls0.rdQLenPdf::13                     0                       # What read queue length does an incoming req see
system.mem_ctrls0.rdQLenPdf::14                     0                       # What read queue length does an incoming req see
system.mem_ctrls0.rdQLenPdf::15                     0                       # What read queue length does an incoming req see
system.mem_ctrls0.rdQLenPdf::16                     0                       # What read queue length does an incoming req see
system.mem_ctrls0.rdQLenPdf::17                     0                       # What read queue length does an incoming req see
system.mem_ctrls0.rdQLenPdf::18                     0                       # What read queue length does an incoming req see
system.mem_ctrls0.rdQLenPdf::19                     0                       # What read queue length does an incoming req see
system.mem_ctrls0.rdQLenPdf::20                     0                       # What read queue length does an incoming req see
system.mem_ctrls0.rdQLenPdf::21                     0                       # What read queue length does an incoming req see
system.mem_ctrls0.rdQLenPdf::22                     0                       # What read queue length does an incoming req see
system.mem_ctrls0.rdQLenPdf::23                     0                       # What read queue length does an incoming req see
system.mem_ctrls0.rdQLenPdf::24                     0                       # What read queue length does an incoming req see
system.mem_ctrls0.rdQLenPdf::25                     0                       # What read queue length does an incoming req see
system.mem_ctrls0.rdQLenPdf::26                     0                       # What read queue length does an incoming req see
system.mem_ctrls0.rdQLenPdf::27                     0                       # What read queue length does an incoming req see
system.mem_ctrls0.rdQLenPdf::28                     0                       # What read queue length does an incoming req see
system.mem_ctrls0.rdQLenPdf::29                     0                       # What read queue length does an incoming req see
system.mem_ctrls0.rdQLenPdf::30                     0                       # What read queue length does an incoming req see
system.mem_ctrls0.rdQLenPdf::31                     0                       # What read queue length does an incoming req see
system.mem_ctrls0.wrQLenPdf::0                      2                       # What write queue length does an incoming req see
system.mem_ctrls0.wrQLenPdf::1                      2                       # What write queue length does an incoming req see
system.mem_ctrls0.wrQLenPdf::2                      2                       # What write queue length does an incoming req see
system.mem_ctrls0.wrQLenPdf::3                      2                       # What write queue length does an incoming req see
system.mem_ctrls0.wrQLenPdf::4                      2                       # What write queue length does an incoming req see
system.mem_ctrls0.wrQLenPdf::5                      2                       # What write queue length does an incoming req see
system.mem_ctrls0.wrQLenPdf::6                      2                       # What write queue length does an incoming req see
system.mem_ctrls0.wrQLenPdf::7                      2                       # What write queue length does an incoming req see
system.mem_ctrls0.wrQLenPdf::8                      2                       # What write queue length does an incoming req see
system.mem_ctrls0.wrQLenPdf::9                      2                       # What write queue length does an incoming req see
system.mem_ctrls0.wrQLenPdf::10                     2                       # What write queue length does an incoming req see
system.mem_ctrls0.wrQLenPdf::11                     2                       # What write queue length does an incoming req see
system.mem_ctrls0.wrQLenPdf::12                     2                       # What write queue length does an incoming req see
system.mem_ctrls0.wrQLenPdf::13                     2                       # What write queue length does an incoming req see
system.mem_ctrls0.wrQLenPdf::14                     2                       # What write queue length does an incoming req see
system.mem_ctrls0.wrQLenPdf::15                   427                       # What write queue length does an incoming req see
system.mem_ctrls0.wrQLenPdf::16                   450                       # What write queue length does an incoming req see
system.mem_ctrls0.wrQLenPdf::17                   649                       # What write queue length does an incoming req see
system.mem_ctrls0.wrQLenPdf::18                   660                       # What write queue length does an incoming req see
system.mem_ctrls0.wrQLenPdf::19                   665                       # What write queue length does an incoming req see
system.mem_ctrls0.wrQLenPdf::20                   661                       # What write queue length does an incoming req see
system.mem_ctrls0.wrQLenPdf::21                   662                       # What write queue length does an incoming req see
system.mem_ctrls0.wrQLenPdf::22                   663                       # What write queue length does an incoming req see
system.mem_ctrls0.wrQLenPdf::23                   664                       # What write queue length does an incoming req see
system.mem_ctrls0.wrQLenPdf::24                   662                       # What write queue length does an incoming req see
system.mem_ctrls0.wrQLenPdf::25                   662                       # What write queue length does an incoming req see
system.mem_ctrls0.wrQLenPdf::26                   667                       # What write queue length does an incoming req see
system.mem_ctrls0.wrQLenPdf::27                   664                       # What write queue length does an incoming req see
system.mem_ctrls0.wrQLenPdf::28                   663                       # What write queue length does an incoming req see
system.mem_ctrls0.wrQLenPdf::29                   662                       # What write queue length does an incoming req see
system.mem_ctrls0.wrQLenPdf::30                   662                       # What write queue length does an incoming req see
system.mem_ctrls0.wrQLenPdf::31                   661                       # What write queue length does an incoming req see
system.mem_ctrls0.wrQLenPdf::32                   660                       # What write queue length does an incoming req see
system.mem_ctrls0.wrQLenPdf::33                     0                       # What write queue length does an incoming req see
system.mem_ctrls0.wrQLenPdf::34                     0                       # What write queue length does an incoming req see
system.mem_ctrls0.wrQLenPdf::35                     0                       # What write queue length does an incoming req see
system.mem_ctrls0.wrQLenPdf::36                     0                       # What write queue length does an incoming req see
system.mem_ctrls0.wrQLenPdf::37                     0                       # What write queue length does an incoming req see
system.mem_ctrls0.wrQLenPdf::38                     0                       # What write queue length does an incoming req see
system.mem_ctrls0.wrQLenPdf::39                     0                       # What write queue length does an incoming req see
system.mem_ctrls0.wrQLenPdf::40                     0                       # What write queue length does an incoming req see
system.mem_ctrls0.wrQLenPdf::41                     0                       # What write queue length does an incoming req see
system.mem_ctrls0.wrQLenPdf::42                     0                       # What write queue length does an incoming req see
system.mem_ctrls0.wrQLenPdf::43                     0                       # What write queue length does an incoming req see
system.mem_ctrls0.wrQLenPdf::44                     0                       # What write queue length does an incoming req see
system.mem_ctrls0.wrQLenPdf::45                     0                       # What write queue length does an incoming req see
system.mem_ctrls0.wrQLenPdf::46                     0                       # What write queue length does an incoming req see
system.mem_ctrls0.wrQLenPdf::47                     0                       # What write queue length does an incoming req see
system.mem_ctrls0.wrQLenPdf::48                     0                       # What write queue length does an incoming req see
system.mem_ctrls0.wrQLenPdf::49                     0                       # What write queue length does an incoming req see
system.mem_ctrls0.wrQLenPdf::50                     0                       # What write queue length does an incoming req see
system.mem_ctrls0.wrQLenPdf::51                     0                       # What write queue length does an incoming req see
system.mem_ctrls0.wrQLenPdf::52                     0                       # What write queue length does an incoming req see
system.mem_ctrls0.wrQLenPdf::53                     0                       # What write queue length does an incoming req see
system.mem_ctrls0.wrQLenPdf::54                     0                       # What write queue length does an incoming req see
system.mem_ctrls0.wrQLenPdf::55                     0                       # What write queue length does an incoming req see
system.mem_ctrls0.wrQLenPdf::56                     0                       # What write queue length does an incoming req see
system.mem_ctrls0.wrQLenPdf::57                     0                       # What write queue length does an incoming req see
system.mem_ctrls0.wrQLenPdf::58                     0                       # What write queue length does an incoming req see
system.mem_ctrls0.wrQLenPdf::59                     0                       # What write queue length does an incoming req see
system.mem_ctrls0.wrQLenPdf::60                     0                       # What write queue length does an incoming req see
system.mem_ctrls0.wrQLenPdf::61                     0                       # What write queue length does an incoming req see
system.mem_ctrls0.wrQLenPdf::62                     0                       # What write queue length does an incoming req see
system.mem_ctrls0.wrQLenPdf::63                     0                       # What write queue length does an incoming req see
system.mem_ctrls0.bytesPerActivate::samples        46725                       # Bytes accessed per row activation
system.mem_ctrls0.bytesPerActivate::mean   133.407640                       # Bytes accessed per row activation
system.mem_ctrls0.bytesPerActivate::gmean    95.794987                       # Bytes accessed per row activation
system.mem_ctrls0.bytesPerActivate::stdev   160.760161                       # Bytes accessed per row activation
system.mem_ctrls0.bytesPerActivate::0-127        31432     67.27%     67.27% # Bytes accessed per row activation
system.mem_ctrls0.bytesPerActivate::128-255         9268     19.84%     87.11% # Bytes accessed per row activation
system.mem_ctrls0.bytesPerActivate::256-383         2352      5.03%     92.14% # Bytes accessed per row activation
system.mem_ctrls0.bytesPerActivate::384-511         1376      2.94%     95.08% # Bytes accessed per row activation
system.mem_ctrls0.bytesPerActivate::512-639          837      1.79%     96.88% # Bytes accessed per row activation
system.mem_ctrls0.bytesPerActivate::640-767          512      1.10%     97.97% # Bytes accessed per row activation
system.mem_ctrls0.bytesPerActivate::768-895          324      0.69%     98.66% # Bytes accessed per row activation
system.mem_ctrls0.bytesPerActivate::896-1023          183      0.39%     99.06% # Bytes accessed per row activation
system.mem_ctrls0.bytesPerActivate::1024-1151          441      0.94%    100.00% # Bytes accessed per row activation
system.mem_ctrls0.bytesPerActivate::total        46725                       # Bytes accessed per row activation
system.mem_ctrls0.rdPerTurnAround::samples          661                       # Reads before turning the bus around for writes
system.mem_ctrls0.rdPerTurnAround::mean    129.960666                       # Reads before turning the bus around for writes
system.mem_ctrls0.rdPerTurnAround::gmean    77.762697                       # Reads before turning the bus around for writes
system.mem_ctrls0.rdPerTurnAround::stdev  1053.286886                       # Reads before turning the bus around for writes
system.mem_ctrls0.rdPerTurnAround::0-1023          659     99.70%     99.70% # Reads before turning the bus around for writes
system.mem_ctrls0.rdPerTurnAround::1024-2047            1      0.15%     99.85% # Reads before turning the bus around for writes
system.mem_ctrls0.rdPerTurnAround::26624-27647            1      0.15%    100.00% # Reads before turning the bus around for writes
system.mem_ctrls0.rdPerTurnAround::total          661                       # Reads before turning the bus around for writes
system.mem_ctrls0.wrPerTurnAround::samples          661                       # Writes before turning the bus around for reads
system.mem_ctrls0.wrPerTurnAround::mean     17.347958                       # Writes before turning the bus around for reads
system.mem_ctrls0.wrPerTurnAround::gmean    17.320603                       # Writes before turning the bus around for reads
system.mem_ctrls0.wrPerTurnAround::stdev     0.964498                       # Writes before turning the bus around for reads
system.mem_ctrls0.wrPerTurnAround::16             213     32.22%     32.22% # Writes before turning the bus around for reads
system.mem_ctrls0.wrPerTurnAround::17              23      3.48%     35.70% # Writes before turning the bus around for reads
system.mem_ctrls0.wrPerTurnAround::18             408     61.72%     97.43% # Writes before turning the bus around for reads
system.mem_ctrls0.wrPerTurnAround::19              16      2.42%     99.85% # Writes before turning the bus around for reads
system.mem_ctrls0.wrPerTurnAround::20               1      0.15%    100.00% # Writes before turning the bus around for reads
system.mem_ctrls0.wrPerTurnAround::total          661                       # Writes before turning the bus around for reads
system.mem_ctrls0.totQLat                  3547921383                       # Total ticks spent queuing
system.mem_ctrls0.totMemAccLat             5159127633                       # Total ticks spent from burst creation until serviced by the DRAM
system.mem_ctrls0.totBusLat                 429655000                       # Total ticks spent in databus transfers
system.mem_ctrls0.avgQLat                    41288.03                       # Average queueing delay per DRAM burst
system.mem_ctrls0.avgBusLat                   5000.00                       # Average bus latency per DRAM burst
system.mem_ctrls0.avgMemAccLat               60038.03                       # Average memory access latency per DRAM burst
system.mem_ctrls0.avgRdBW                        5.13                       # Average DRAM read bandwidth in MiByte/s
system.mem_ctrls0.avgWrBW                        0.68                       # Average achieved write bandwidth in MiByte/s
system.mem_ctrls0.avgRdBWSys                     5.13                       # Average system read bandwidth in MiByte/s
system.mem_ctrls0.avgWrBWSys                     0.69                       # Average system write bandwidth in MiByte/s
system.mem_ctrls0.peakBW                     12800.00                       # Theoretical peak bandwidth in MiByte/s
system.mem_ctrls0.busUtil                        0.05                       # Data bus utilization in percentage
system.mem_ctrls0.busUtilRead                    0.04                       # Data bus utilization in percentage for reads
system.mem_ctrls0.busUtilWrite                   0.01                       # Data bus utilization in percentage for writes
system.mem_ctrls0.avgRdQLen                      1.01                       # Average read queue length when enqueuing
system.mem_ctrls0.avgWrQLen                     17.64                       # Average write queue length when enqueuing
system.mem_ctrls0.readRowHits                   49026                       # Number of row buffer hits during reads
system.mem_ctrls0.writeRowHits                   1647                       # Number of row buffer hits during writes
system.mem_ctrls0.readRowHitRate                57.05                       # Row buffer hit rate for reads
system.mem_ctrls0.writeRowHitRate               14.33                       # Row buffer hit rate for writes
system.mem_ctrls0.avgGap                  11004002.24                       # Average gap between requests
system.mem_ctrls0.pageHitRate                   52.01                       # Row buffer hit rate, read and write combined
system.mem_ctrls0_0.actEnergy               168111300                       # Energy for activate commands per rank (pJ)
system.mem_ctrls0_0.preEnergy                89353275                       # Energy for precharge commands per rank (pJ)
system.mem_ctrls0_0.readEnergy              305920440                       # Energy for read commands per rank (pJ)
system.mem_ctrls0_0.writeEnergy              29075400                       # Energy for write commands per rank (pJ)
system.mem_ctrls0_0.refreshEnergy        6330177360.000001                       # Energy for refresh commands per rank (pJ)
system.mem_ctrls0_0.actBackEnergy          2222426010                       # Energy for active background per rank (pJ)
system.mem_ctrls0_0.preBackEnergy           310668480                       # Energy for precharge background per rank (pJ)
system.mem_ctrls0_0.actPowerDownEnergy    17705503020                       # Energy for active power-down per rank (pJ)
system.mem_ctrls0_0.prePowerDownEnergy     8279513280                       # Energy for precharge power-down per rank (pJ)
system.mem_ctrls0_0.selfRefreshEnergy    242606828805                       # Energy for self refresh per rank (pJ)
system.mem_ctrls0_0.totalEnergy          278049502800                       # Total energy per rank (pJ)
system.mem_ctrls0_0.averagePower           259.265567                       # Core power per rank (mW)
system.mem_ctrls0_0.totalIdleTime        1066761942270                       # Total Idle time Per DRAM Rank
system.mem_ctrls0_0.memoryStateTime::IDLE    562320760                       # Time in different power states
system.mem_ctrls0_0.memoryStateTime::REF   2689662000                       # Time in different power states
system.mem_ctrls0_0.memoryStateTime::SREF 1006374416690                       # Time in different power states
system.mem_ctrls0_0.memoryStateTime::PRE_PDN  21561308261                       # Time in different power states
system.mem_ctrls0_0.memoryStateTime::ACT   2435123410                       # Time in different power states
system.mem_ctrls0_0.memoryStateTime::ACT_PDN  38827727130                       # Time in different power states
system.mem_ctrls0_1.actEnergy               165505200                       # Energy for activate commands per rank (pJ)
system.mem_ctrls0_1.preEnergy                87968100                       # Energy for precharge commands per rank (pJ)
system.mem_ctrls0_1.readEnergy              307626900                       # Energy for read commands per rank (pJ)
system.mem_ctrls0_1.writeEnergy              30782340                       # Energy for write commands per rank (pJ)
system.mem_ctrls0_1.refreshEnergy        6363982560.000001                       # Energy for refresh commands per rank (pJ)
system.mem_ctrls0_1.actBackEnergy          2211275100                       # Energy for active background per rank (pJ)
system.mem_ctrls0_1.preBackEnergy           311983200                       # Energy for precharge background per rank (pJ)
system.mem_ctrls0_1.actPowerDownEnergy    17714959890                       # Energy for active power-down per rank (pJ)
system.mem_ctrls0_1.prePowerDownEnergy     8307237120                       # Energy for precharge power-down per rank (pJ)
system.mem_ctrls0_1.selfRefreshEnergy    242616514245                       # Energy for self refresh per rank (pJ)
system.mem_ctrls0_1.totalEnergy          278119560315                       # Total energy per rank (pJ)
system.mem_ctrls0_1.averagePower           259.330892                       # Core power per rank (mW)
system.mem_ctrls0_1.totalIdleTime        1066774931880                       # Total Idle time Per DRAM Rank
system.mem_ctrls0_1.memoryStateTime::IDLE    565551206                       # Time in different power states
system.mem_ctrls0_1.memoryStateTime::REF   2704226000                       # Time in different power states
system.mem_ctrls0_1.memoryStateTime::SREF 1006302958751                       # Time in different power states
system.mem_ctrls0_1.memoryStateTime::PRE_PDN  21633422378                       # Time in different power states
system.mem_ctrls0_1.memoryStateTime::ACT   2395513180                       # Time in different power states
system.mem_ctrls0_1.memoryStateTime::ACT_PDN  38848886736                       # Time in different power states
system.mem_ctrls1.pwrStateResidencyTicks::UNDEFINED 31083864719301                       # Cumulative time (in ticks) in various power states
system.mem_ctrls1.bytes_read::cpu.inst            192                       # Number of bytes read from this memory
system.mem_ctrls1.bytes_read::cpu.data            192                       # Number of bytes read from this memory
system.mem_ctrls1.bytes_read::switch_cpus.inst       138304                       # Number of bytes read from this memory
system.mem_ctrls1.bytes_read::switch_cpus.data      3635584                       # Number of bytes read from this memory
system.mem_ctrls1.bytes_read::switch_cpus_1.inst       133632                       # Number of bytes read from this memory
system.mem_ctrls1.bytes_read::switch_cpus_1.data      1607232                       # Number of bytes read from this memory
system.mem_ctrls1.bytes_read::total           5515136                       # Number of bytes read from this memory
system.mem_ctrls1.bytes_inst_read::cpu.inst          192                       # Number of instructions bytes read from this memory
system.mem_ctrls1.bytes_inst_read::switch_cpus.inst       138304                       # Number of instructions bytes read from this memory
system.mem_ctrls1.bytes_inst_read::switch_cpus_1.inst       133632                       # Number of instructions bytes read from this memory
system.mem_ctrls1.bytes_inst_read::total       272128                       # Number of instructions bytes read from this memory
system.mem_ctrls1.bytes_written::writebacks       730560                       # Number of bytes written to this memory
system.mem_ctrls1.bytes_written::total         730560                       # Number of bytes written to this memory
system.mem_ctrls1.num_reads::cpu.inst               3                       # Number of read requests responded to by this memory
system.mem_ctrls1.num_reads::cpu.data               3                       # Number of read requests responded to by this memory
system.mem_ctrls1.num_reads::switch_cpus.inst         2161                       # Number of read requests responded to by this memory
system.mem_ctrls1.num_reads::switch_cpus.data        56806                       # Number of read requests responded to by this memory
system.mem_ctrls1.num_reads::switch_cpus_1.inst         2088                       # Number of read requests responded to by this memory
system.mem_ctrls1.num_reads::switch_cpus_1.data        25113                       # Number of read requests responded to by this memory
system.mem_ctrls1.num_reads::total              86174                       # Number of read requests responded to by this memory
system.mem_ctrls1.num_writes::writebacks        11415                       # Number of write requests responded to by this memory
system.mem_ctrls1.num_writes::total             11415                       # Number of write requests responded to by this memory
system.mem_ctrls1.bw_read::cpu.inst               179                       # Total read bandwidth from this memory (bytes/s)
system.mem_ctrls1.bw_read::cpu.data               179                       # Total read bandwidth from this memory (bytes/s)
system.mem_ctrls1.bw_read::switch_cpus.inst       128961                       # Total read bandwidth from this memory (bytes/s)
system.mem_ctrls1.bw_read::switch_cpus.data      3389978                       # Total read bandwidth from this memory (bytes/s)
system.mem_ctrls1.bw_read::switch_cpus_1.inst       124604                       # Total read bandwidth from this memory (bytes/s)
system.mem_ctrls1.bw_read::switch_cpus_1.data      1498654                       # Total read bandwidth from this memory (bytes/s)
system.mem_ctrls1.bw_read::total              5142555                       # Total read bandwidth from this memory (bytes/s)
system.mem_ctrls1.bw_inst_read::cpu.inst          179                       # Instruction read bandwidth from this memory (bytes/s)
system.mem_ctrls1.bw_inst_read::switch_cpus.inst       128961                       # Instruction read bandwidth from this memory (bytes/s)
system.mem_ctrls1.bw_inst_read::switch_cpus_1.inst       124604                       # Instruction read bandwidth from this memory (bytes/s)
system.mem_ctrls1.bw_inst_read::total          253744                       # Instruction read bandwidth from this memory (bytes/s)
system.mem_ctrls1.bw_write::writebacks         681206                       # Write bandwidth from this memory (bytes/s)
system.mem_ctrls1.bw_write::total              681206                       # Write bandwidth from this memory (bytes/s)
system.mem_ctrls1.bw_total::writebacks         681206                       # Total bandwidth to/from this memory (bytes/s)
system.mem_ctrls1.bw_total::cpu.inst              179                       # Total bandwidth to/from this memory (bytes/s)
system.mem_ctrls1.bw_total::cpu.data              179                       # Total bandwidth to/from this memory (bytes/s)
system.mem_ctrls1.bw_total::switch_cpus.inst       128961                       # Total bandwidth to/from this memory (bytes/s)
system.mem_ctrls1.bw_total::switch_cpus.data      3389978                       # Total bandwidth to/from this memory (bytes/s)
system.mem_ctrls1.bw_total::switch_cpus_1.inst       124604                       # Total bandwidth to/from this memory (bytes/s)
system.mem_ctrls1.bw_total::switch_cpus_1.data      1498654                       # Total bandwidth to/from this memory (bytes/s)
system.mem_ctrls1.bw_total::total             5823761                       # Total bandwidth to/from this memory (bytes/s)
system.mem_ctrls1.readReqs                      86174                       # Number of read requests accepted
system.mem_ctrls1.writeReqs                     11415                       # Number of write requests accepted
system.mem_ctrls1.readBursts                    86174                       # Number of DRAM read bursts, including those serviced by the write queue
system.mem_ctrls1.writeBursts                   11415                       # Number of DRAM write bursts, including those merged in the write queue
system.mem_ctrls1.bytesReadDRAM               5513344                       # Total number of bytes read from DRAM
system.mem_ctrls1.bytesReadWrQ                   1792                       # Total number of bytes read from write queue
system.mem_ctrls1.bytesWritten                 729280                       # Total number of bytes written to DRAM
system.mem_ctrls1.bytesReadSys                5515136                       # Total read bytes from the system interface side
system.mem_ctrls1.bytesWrittenSys              730560                       # Total written bytes from the system interface side
system.mem_ctrls1.servicedByWrQ                    28                       # Number of DRAM read bursts serviced by the write queue
system.mem_ctrls1.mergedWrBursts                    0                       # Number of DRAM write bursts merged with an existing one
system.mem_ctrls1.neitherReadNorWriteReqs            0                       # Number of requests that are neither read nor write
system.mem_ctrls1.perBankRdBursts::0             5345                       # Per bank write bursts
system.mem_ctrls1.perBankRdBursts::1             5459                       # Per bank write bursts
system.mem_ctrls1.perBankRdBursts::2             5984                       # Per bank write bursts
system.mem_ctrls1.perBankRdBursts::3             5663                       # Per bank write bursts
system.mem_ctrls1.perBankRdBursts::4             5218                       # Per bank write bursts
system.mem_ctrls1.perBankRdBursts::5             5199                       # Per bank write bursts
system.mem_ctrls1.perBankRdBursts::6             4936                       # Per bank write bursts
system.mem_ctrls1.perBankRdBursts::7             4912                       # Per bank write bursts
system.mem_ctrls1.perBankRdBursts::8             5203                       # Per bank write bursts
system.mem_ctrls1.perBankRdBursts::9             5084                       # Per bank write bursts
system.mem_ctrls1.perBankRdBursts::10            5011                       # Per bank write bursts
system.mem_ctrls1.perBankRdBursts::11            4822                       # Per bank write bursts
system.mem_ctrls1.perBankRdBursts::12            6117                       # Per bank write bursts
system.mem_ctrls1.perBankRdBursts::13            5639                       # Per bank write bursts
system.mem_ctrls1.perBankRdBursts::14            5675                       # Per bank write bursts
system.mem_ctrls1.perBankRdBursts::15            5879                       # Per bank write bursts
system.mem_ctrls1.perBankWrBursts::0              701                       # Per bank write bursts
system.mem_ctrls1.perBankWrBursts::1              715                       # Per bank write bursts
system.mem_ctrls1.perBankWrBursts::2              815                       # Per bank write bursts
system.mem_ctrls1.perBankWrBursts::3              735                       # Per bank write bursts
system.mem_ctrls1.perBankWrBursts::4              695                       # Per bank write bursts
system.mem_ctrls1.perBankWrBursts::5              661                       # Per bank write bursts
system.mem_ctrls1.perBankWrBursts::6              529                       # Per bank write bursts
system.mem_ctrls1.perBankWrBursts::7              633                       # Per bank write bursts
system.mem_ctrls1.perBankWrBursts::8              708                       # Per bank write bursts
system.mem_ctrls1.perBankWrBursts::9              518                       # Per bank write bursts
system.mem_ctrls1.perBankWrBursts::10             602                       # Per bank write bursts
system.mem_ctrls1.perBankWrBursts::11             666                       # Per bank write bursts
system.mem_ctrls1.perBankWrBursts::12             923                       # Per bank write bursts
system.mem_ctrls1.perBankWrBursts::13             835                       # Per bank write bursts
system.mem_ctrls1.perBankWrBursts::14             839                       # Per bank write bursts
system.mem_ctrls1.perBankWrBursts::15             820                       # Per bank write bursts
system.mem_ctrls1.numRdRetry                        0                       # Number of times read queue was full causing retry
system.mem_ctrls1.numWrRetry                        0                       # Number of times write queue was full causing retry
system.mem_ctrls1.totGap                 1072443774375                       # Total gap between requests
system.mem_ctrls1.readPktSize::0                    0                       # Read request sizes (log2)
system.mem_ctrls1.readPktSize::1                    0                       # Read request sizes (log2)
system.mem_ctrls1.readPktSize::2                    0                       # Read request sizes (log2)
system.mem_ctrls1.readPktSize::3                    0                       # Read request sizes (log2)
system.mem_ctrls1.readPktSize::4                    0                       # Read request sizes (log2)
system.mem_ctrls1.readPktSize::5                    0                       # Read request sizes (log2)
system.mem_ctrls1.readPktSize::6                86174                       # Read request sizes (log2)
system.mem_ctrls1.writePktSize::0                   0                       # Write request sizes (log2)
system.mem_ctrls1.writePktSize::1                   0                       # Write request sizes (log2)
system.mem_ctrls1.writePktSize::2                   0                       # Write request sizes (log2)
system.mem_ctrls1.writePktSize::3                   0                       # Write request sizes (log2)
system.mem_ctrls1.writePktSize::4                   0                       # Write request sizes (log2)
system.mem_ctrls1.writePktSize::5                   0                       # Write request sizes (log2)
system.mem_ctrls1.writePktSize::6               11415                       # Write request sizes (log2)
system.mem_ctrls1.rdQLenPdf::0                  83430                       # What read queue length does an incoming req see
system.mem_ctrls1.rdQLenPdf::1                   2615                       # What read queue length does an incoming req see
system.mem_ctrls1.rdQLenPdf::2                     91                       # What read queue length does an incoming req see
system.mem_ctrls1.rdQLenPdf::3                     10                       # What read queue length does an incoming req see
system.mem_ctrls1.rdQLenPdf::4                      0                       # What read queue length does an incoming req see
system.mem_ctrls1.rdQLenPdf::5                      0                       # What read queue length does an incoming req see
system.mem_ctrls1.rdQLenPdf::6                      0                       # What read queue length does an incoming req see
system.mem_ctrls1.rdQLenPdf::7                      0                       # What read queue length does an incoming req see
system.mem_ctrls1.rdQLenPdf::8                      0                       # What read queue length does an incoming req see
system.mem_ctrls1.rdQLenPdf::9                      0                       # What read queue length does an incoming req see
system.mem_ctrls1.rdQLenPdf::10                     0                       # What read queue length does an incoming req see
system.mem_ctrls1.rdQLenPdf::11                     0                       # What read queue length does an incoming req see
system.mem_ctrls1.rdQLenPdf::12                     0                       # What read queue length does an incoming req see
system.mem_ctrls1.rdQLenPdf::13                     0                       # What read queue length does an incoming req see
system.mem_ctrls1.rdQLenPdf::14                     0                       # What read queue length does an incoming req see
system.mem_ctrls1.rdQLenPdf::15                     0                       # What read queue length does an incoming req see
system.mem_ctrls1.rdQLenPdf::16                     0                       # What read queue length does an incoming req see
system.mem_ctrls1.rdQLenPdf::17                     0                       # What read queue length does an incoming req see
system.mem_ctrls1.rdQLenPdf::18                     0                       # What read queue length does an incoming req see
system.mem_ctrls1.rdQLenPdf::19                     0                       # What read queue length does an incoming req see
system.mem_ctrls1.rdQLenPdf::20                     0                       # What read queue length does an incoming req see
system.mem_ctrls1.rdQLenPdf::21                     0                       # What read queue length does an incoming req see
system.mem_ctrls1.rdQLenPdf::22                     0                       # What read queue length does an incoming req see
system.mem_ctrls1.rdQLenPdf::23                     0                       # What read queue length does an incoming req see
system.mem_ctrls1.rdQLenPdf::24                     0                       # What read queue length does an incoming req see
system.mem_ctrls1.rdQLenPdf::25                     0                       # What read queue length does an incoming req see
system.mem_ctrls1.rdQLenPdf::26                     0                       # What read queue length does an incoming req see
system.mem_ctrls1.rdQLenPdf::27                     0                       # What read queue length does an incoming req see
system.mem_ctrls1.rdQLenPdf::28                     0                       # What read queue length does an incoming req see
system.mem_ctrls1.rdQLenPdf::29                     0                       # What read queue length does an incoming req see
system.mem_ctrls1.rdQLenPdf::30                     0                       # What read queue length does an incoming req see
system.mem_ctrls1.rdQLenPdf::31                     0                       # What read queue length does an incoming req see
system.mem_ctrls1.wrQLenPdf::0                      2                       # What write queue length does an incoming req see
system.mem_ctrls1.wrQLenPdf::1                      2                       # What write queue length does an incoming req see
system.mem_ctrls1.wrQLenPdf::2                      2                       # What write queue length does an incoming req see
system.mem_ctrls1.wrQLenPdf::3                      2                       # What write queue length does an incoming req see
system.mem_ctrls1.wrQLenPdf::4                      2                       # What write queue length does an incoming req see
system.mem_ctrls1.wrQLenPdf::5                      2                       # What write queue length does an incoming req see
system.mem_ctrls1.wrQLenPdf::6                      2                       # What write queue length does an incoming req see
system.mem_ctrls1.wrQLenPdf::7                      2                       # What write queue length does an incoming req see
system.mem_ctrls1.wrQLenPdf::8                      2                       # What write queue length does an incoming req see
system.mem_ctrls1.wrQLenPdf::9                      2                       # What write queue length does an incoming req see
system.mem_ctrls1.wrQLenPdf::10                     2                       # What write queue length does an incoming req see
system.mem_ctrls1.wrQLenPdf::11                     2                       # What write queue length does an incoming req see
system.mem_ctrls1.wrQLenPdf::12                     2                       # What write queue length does an incoming req see
system.mem_ctrls1.wrQLenPdf::13                     2                       # What write queue length does an incoming req see
system.mem_ctrls1.wrQLenPdf::14                     2                       # What write queue length does an incoming req see
system.mem_ctrls1.wrQLenPdf::15                   437                       # What write queue length does an incoming req see
system.mem_ctrls1.wrQLenPdf::16                   456                       # What write queue length does an incoming req see
system.mem_ctrls1.wrQLenPdf::17                   641                       # What write queue length does an incoming req see
system.mem_ctrls1.wrQLenPdf::18                   658                       # What write queue length does an incoming req see
system.mem_ctrls1.wrQLenPdf::19                   657                       # What write queue length does an incoming req see
system.mem_ctrls1.wrQLenPdf::20                   658                       # What write queue length does an incoming req see
system.mem_ctrls1.wrQLenPdf::21                   656                       # What write queue length does an incoming req see
system.mem_ctrls1.wrQLenPdf::22                   657                       # What write queue length does an incoming req see
system.mem_ctrls1.wrQLenPdf::23                   657                       # What write queue length does an incoming req see
system.mem_ctrls1.wrQLenPdf::24                   658                       # What write queue length does an incoming req see
system.mem_ctrls1.wrQLenPdf::25                   658                       # What write queue length does an incoming req see
system.mem_ctrls1.wrQLenPdf::26                   660                       # What write queue length does an incoming req see
system.mem_ctrls1.wrQLenPdf::27                   657                       # What write queue length does an incoming req see
system.mem_ctrls1.wrQLenPdf::28                   656                       # What write queue length does an incoming req see
system.mem_ctrls1.wrQLenPdf::29                   654                       # What write queue length does an incoming req see
system.mem_ctrls1.wrQLenPdf::30                   657                       # What write queue length does an incoming req see
system.mem_ctrls1.wrQLenPdf::31                   654                       # What write queue length does an incoming req see
system.mem_ctrls1.wrQLenPdf::32                   654                       # What write queue length does an incoming req see
system.mem_ctrls1.wrQLenPdf::33                     0                       # What write queue length does an incoming req see
system.mem_ctrls1.wrQLenPdf::34                     0                       # What write queue length does an incoming req see
system.mem_ctrls1.wrQLenPdf::35                     0                       # What write queue length does an incoming req see
system.mem_ctrls1.wrQLenPdf::36                     0                       # What write queue length does an incoming req see
system.mem_ctrls1.wrQLenPdf::37                     0                       # What write queue length does an incoming req see
system.mem_ctrls1.wrQLenPdf::38                     0                       # What write queue length does an incoming req see
system.mem_ctrls1.wrQLenPdf::39                     0                       # What write queue length does an incoming req see
system.mem_ctrls1.wrQLenPdf::40                     0                       # What write queue length does an incoming req see
system.mem_ctrls1.wrQLenPdf::41                     0                       # What write queue length does an incoming req see
system.mem_ctrls1.wrQLenPdf::42                     0                       # What write queue length does an incoming req see
system.mem_ctrls1.wrQLenPdf::43                     0                       # What write queue length does an incoming req see
system.mem_ctrls1.wrQLenPdf::44                     0                       # What write queue length does an incoming req see
system.mem_ctrls1.wrQLenPdf::45                     0                       # What write queue length does an incoming req see
system.mem_ctrls1.wrQLenPdf::46                     0                       # What write queue length does an incoming req see
system.mem_ctrls1.wrQLenPdf::47                     0                       # What write queue length does an incoming req see
system.mem_ctrls1.wrQLenPdf::48                     0                       # What write queue length does an incoming req see
system.mem_ctrls1.wrQLenPdf::49                     0                       # What write queue length does an incoming req see
system.mem_ctrls1.wrQLenPdf::50                     0                       # What write queue length does an incoming req see
system.mem_ctrls1.wrQLenPdf::51                     0                       # What write queue length does an incoming req see
system.mem_ctrls1.wrQLenPdf::52                     0                       # What write queue length does an incoming req see
system.mem_ctrls1.wrQLenPdf::53                     0                       # What write queue length does an incoming req see
system.mem_ctrls1.wrQLenPdf::54                     0                       # What write queue length does an incoming req see
system.mem_ctrls1.wrQLenPdf::55                     0                       # What write queue length does an incoming req see
system.mem_ctrls1.wrQLenPdf::56                     0                       # What write queue length does an incoming req see
system.mem_ctrls1.wrQLenPdf::57                     0                       # What write queue length does an incoming req see
system.mem_ctrls1.wrQLenPdf::58                     0                       # What write queue length does an incoming req see
system.mem_ctrls1.wrQLenPdf::59                     0                       # What write queue length does an incoming req see
system.mem_ctrls1.wrQLenPdf::60                     0                       # What write queue length does an incoming req see
system.mem_ctrls1.wrQLenPdf::61                     0                       # What write queue length does an incoming req see
system.mem_ctrls1.wrQLenPdf::62                     0                       # What write queue length does an incoming req see
system.mem_ctrls1.wrQLenPdf::63                     0                       # What write queue length does an incoming req see
system.mem_ctrls1.bytesPerActivate::samples        46762                       # Bytes accessed per row activation
system.mem_ctrls1.bytesPerActivate::mean   133.496429                       # Bytes accessed per row activation
system.mem_ctrls1.bytesPerActivate::gmean    95.747421                       # Bytes accessed per row activation
system.mem_ctrls1.bytesPerActivate::stdev   161.200697                       # Bytes accessed per row activation
system.mem_ctrls1.bytesPerActivate::0-127        31487     67.33%     67.33% # Bytes accessed per row activation
system.mem_ctrls1.bytesPerActivate::128-255         9253     19.79%     87.12% # Bytes accessed per row activation
system.mem_ctrls1.bytesPerActivate::256-383         2297      4.91%     92.03% # Bytes accessed per row activation
system.mem_ctrls1.bytesPerActivate::384-511         1386      2.96%     95.00% # Bytes accessed per row activation
system.mem_ctrls1.bytesPerActivate::512-639          888      1.90%     96.90% # Bytes accessed per row activation
system.mem_ctrls1.bytesPerActivate::640-767          509      1.09%     97.99% # Bytes accessed per row activation
system.mem_ctrls1.bytesPerActivate::768-895          301      0.64%     98.63% # Bytes accessed per row activation
system.mem_ctrls1.bytesPerActivate::896-1023          196      0.42%     99.05% # Bytes accessed per row activation
system.mem_ctrls1.bytesPerActivate::1024-1151          445      0.95%    100.00% # Bytes accessed per row activation
system.mem_ctrls1.bytesPerActivate::total        46762                       # Bytes accessed per row activation
system.mem_ctrls1.rdPerTurnAround::samples          655                       # Reads before turning the bus around for writes
system.mem_ctrls1.rdPerTurnAround::mean    131.512977                       # Reads before turning the bus around for writes
system.mem_ctrls1.rdPerTurnAround::gmean    78.211444                       # Reads before turning the bus around for writes
system.mem_ctrls1.rdPerTurnAround::stdev  1081.254346                       # Reads before turning the bus around for writes
system.mem_ctrls1.rdPerTurnAround::0-1023          654     99.85%     99.85% # Reads before turning the bus around for writes
system.mem_ctrls1.rdPerTurnAround::27648-28671            1      0.15%    100.00% # Reads before turning the bus around for writes
system.mem_ctrls1.rdPerTurnAround::total          655                       # Reads before turning the bus around for writes
system.mem_ctrls1.wrPerTurnAround::samples          655                       # Writes before turning the bus around for reads
system.mem_ctrls1.wrPerTurnAround::mean     17.396947                       # Writes before turning the bus around for reads
system.mem_ctrls1.wrPerTurnAround::gmean    17.367299                       # Writes before turning the bus around for reads
system.mem_ctrls1.wrPerTurnAround::stdev     1.027745                       # Writes before turning the bus around for reads
system.mem_ctrls1.wrPerTurnAround::16             200     30.53%     30.53% # Writes before turning the bus around for reads
system.mem_ctrls1.wrPerTurnAround::17              17      2.60%     33.13% # Writes before turning the bus around for reads
system.mem_ctrls1.wrPerTurnAround::18             425     64.89%     98.02% # Writes before turning the bus around for reads
system.mem_ctrls1.wrPerTurnAround::19              12      1.83%     99.85% # Writes before turning the bus around for reads
system.mem_ctrls1.wrPerTurnAround::28               1      0.15%    100.00% # Writes before turning the bus around for reads
system.mem_ctrls1.wrPerTurnAround::total          655                       # Writes before turning the bus around for reads
system.mem_ctrls1.totQLat                  3537347525                       # Total ticks spent queuing
system.mem_ctrls1.totMemAccLat             5152585025                       # Total ticks spent from burst creation until serviced by the DRAM
system.mem_ctrls1.totBusLat                 430730000                       # Total ticks spent in databus transfers
system.mem_ctrls1.avgQLat                    41062.24                       # Average queueing delay per DRAM burst
system.mem_ctrls1.avgBusLat                   5000.00                       # Average bus latency per DRAM burst
system.mem_ctrls1.avgMemAccLat               59812.24                       # Average memory access latency per DRAM burst
system.mem_ctrls1.avgRdBW                        5.14                       # Average DRAM read bandwidth in MiByte/s
system.mem_ctrls1.avgWrBW                        0.68                       # Average achieved write bandwidth in MiByte/s
system.mem_ctrls1.avgRdBWSys                     5.14                       # Average system read bandwidth in MiByte/s
system.mem_ctrls1.avgWrBWSys                     0.68                       # Average system write bandwidth in MiByte/s
system.mem_ctrls1.peakBW                     12800.00                       # Theoretical peak bandwidth in MiByte/s
system.mem_ctrls1.busUtil                        0.05                       # Data bus utilization in percentage
system.mem_ctrls1.busUtilRead                    0.04                       # Data bus utilization in percentage for reads
system.mem_ctrls1.busUtilWrite                   0.01                       # Data bus utilization in percentage for writes
system.mem_ctrls1.avgRdQLen                      1.01                       # Average read queue length when enqueuing
system.mem_ctrls1.avgWrQLen                     17.84                       # Average write queue length when enqueuing
system.mem_ctrls1.readRowHits                   49108                       # Number of row buffer hits during reads
system.mem_ctrls1.writeRowHits                   1670                       # Number of row buffer hits during writes
system.mem_ctrls1.readRowHitRate                57.01                       # Row buffer hit rate for reads
system.mem_ctrls1.writeRowHitRate               14.63                       # Row buffer hit rate for writes
system.mem_ctrls1.avgGap                  10989391.98                       # Average gap between requests
system.mem_ctrls1.pageHitRate                   52.05                       # Row buffer hit rate, read and write combined
system.mem_ctrls1_0.actEnergy               167318760                       # Energy for activate commands per rank (pJ)
system.mem_ctrls1_0.preEnergy                88932030                       # Energy for precharge commands per rank (pJ)
system.mem_ctrls1_0.readEnergy              304992240                       # Energy for read commands per rank (pJ)
system.mem_ctrls1_0.writeEnergy              28626480                       # Energy for write commands per rank (pJ)
system.mem_ctrls1_0.refreshEnergy        6297601440.000001                       # Energy for refresh commands per rank (pJ)
system.mem_ctrls1_0.actBackEnergy          2169417150                       # Energy for active background per rank (pJ)
system.mem_ctrls1_0.preBackEnergy           306269280                       # Energy for precharge background per rank (pJ)
system.mem_ctrls1_0.actPowerDownEnergy    17656081170                       # Energy for active power-down per rank (pJ)
system.mem_ctrls1_0.prePowerDownEnergy     8258831040                       # Energy for precharge power-down per rank (pJ)
system.mem_ctrls1_0.selfRefreshEnergy    242666937405                       # Energy for self refresh per rank (pJ)
system.mem_ctrls1_0.totalEnergy          277946510235                       # Total energy per rank (pJ)
system.mem_ctrls1_0.averagePower           259.169505                       # Core power per rank (mW)
system.mem_ctrls1_0.totalIdleTime        1066892420452                       # Total Idle time Per DRAM Rank
system.mem_ctrls1_0.memoryStateTime::IDLE    551256569                       # Time in different power states
system.mem_ctrls1_0.memoryStateTime::REF   2675667447                       # Time in different power states
system.mem_ctrls1_0.memoryStateTime::SREF 1006665468054                       # Time in different power states
system.mem_ctrls1_0.memoryStateTime::PRE_PDN  21507550105                       # Time in different power states
system.mem_ctrls1_0.memoryStateTime::ACT   2331213783                       # Time in different power states
system.mem_ctrls1_0.memoryStateTime::ACT_PDN  38719402293                       # Time in different power states
system.mem_ctrls1_1.actEnergy               166569060                       # Energy for activate commands per rank (pJ)
system.mem_ctrls1_1.preEnergy                88529760                       # Energy for precharge commands per rank (pJ)
system.mem_ctrls1_1.readEnergy              310090200                       # Energy for read commands per rank (pJ)
system.mem_ctrls1_1.writeEnergy              30855420                       # Energy for write commands per rank (pJ)
system.mem_ctrls1_1.refreshEnergy        6369514320.000001                       # Energy for refresh commands per rank (pJ)
system.mem_ctrls1_1.actBackEnergy          2219589690                       # Energy for active background per rank (pJ)
system.mem_ctrls1_1.preBackEnergy           315038880                       # Energy for precharge background per rank (pJ)
system.mem_ctrls1_1.actPowerDownEnergy    17732770110                       # Energy for active power-down per rank (pJ)
system.mem_ctrls1_1.prePowerDownEnergy     8311476000                       # Energy for precharge power-down per rank (pJ)
system.mem_ctrls1_1.selfRefreshEnergy    242598321465                       # Energy for self refresh per rank (pJ)
system.mem_ctrls1_1.totalEnergy          278144423265                       # Total energy per rank (pJ)
system.mem_ctrls1_1.averagePower           259.354076                       # Core power per rank (mW)
system.mem_ctrls1_1.totalIdleTime        1066752944467                       # Total Idle time Per DRAM Rank
system.mem_ctrls1_1.memoryStateTime::IDLE    572867082                       # Time in different power states
system.mem_ctrls1_1.memoryStateTime::REF   2706554000                       # Time in different power states
system.mem_ctrls1_1.memoryStateTime::SREF 1006226766826                       # Time in different power states
system.mem_ctrls1_1.memoryStateTime::PRE_PDN  21644442473                       # Time in different power states
system.mem_ctrls1_1.memoryStateTime::ACT   2412103527                       # Time in different power states
system.mem_ctrls1_1.memoryStateTime::ACT_PDN  38887824343                       # Time in different power states
system.pwrStateResidencyTicks::UNDEFINED 31083864719301                       # Cumulative time (in ticks) in various power states
system.cpu.branchPred.lookups                       6                       # Number of BP lookups
system.cpu.branchPred.condPredicted                 3                       # Number of conditional branches predicted
system.cpu.branchPred.condIncorrect                 3                       # Number of conditional branches incorrect
system.cpu.branchPred.BTBLookups                    3                       # Number of BTB lookups
system.cpu.branchPred.BTBHits                       0                       # Number of BTB hits
system.cpu.branchPred.BTBCorrect                    0                       # Number of correct BTB predictions (this stat may not work properly.
system.cpu.branchPred.BTBHitPct              0.000000                       # BTB Hit Percentage
system.cpu.branchPred.usedRAS                       0                       # Number of times the RAS was used to get a target.
system.cpu.branchPred.RASInCorrect                  0                       # Number of incorrect RAS predictions.
system.cpu.branchPred.indirectLookups               1                       # Number of indirect predictor lookups.
system.cpu.branchPred.indirectHits                  0                       # Number of indirect target hits.
system.cpu.branchPred.indirectMisses                1                       # Number of indirect misses.
system.cpu.branchPredindirectMispredicted            1                       # Number of mispredicted indirect branches.
system.cpu_voltage_domain.voltage                   1                       # Voltage in Volts
system.cpu_clk_domain.clock                       333                       # Clock period in ticks
system.cpu.dtb.fetch_hits                           0                       # ITB hits
system.cpu.dtb.fetch_misses                         0                       # ITB misses
system.cpu.dtb.fetch_acv                            0                       # ITB acv
system.cpu.dtb.fetch_accesses                       0                       # ITB accesses
system.cpu.dtb.read_hits                            5                       # DTB read hits
system.cpu.dtb.read_misses                          0                       # DTB read misses
system.cpu.dtb.read_acv                             0                       # DTB read access violations
system.cpu.dtb.read_accesses                        5                       # DTB read accesses
system.cpu.dtb.write_hits                           0                       # DTB write hits
system.cpu.dtb.write_misses                         0                       # DTB write misses
system.cpu.dtb.write_acv                            0                       # DTB write access violations
system.cpu.dtb.write_accesses                       0                       # DTB write accesses
system.cpu.dtb.data_hits                            5                       # DTB hits
system.cpu.dtb.data_misses                          0                       # DTB misses
system.cpu.dtb.data_acv                             0                       # DTB access violations
system.cpu.dtb.data_accesses                        5                       # DTB accesses
system.cpu.itb.fetch_hits                           7                       # ITB hits
system.cpu.itb.fetch_misses                         0                       # ITB misses
system.cpu.itb.fetch_acv                            0                       # ITB acv
system.cpu.itb.fetch_accesses                       7                       # ITB accesses
system.cpu.itb.read_hits                            0                       # DTB read hits
system.cpu.itb.read_misses                          0                       # DTB read misses
system.cpu.itb.read_acv                             0                       # DTB read access violations
system.cpu.itb.read_accesses                        0                       # DTB read accesses
system.cpu.itb.write_hits                           0                       # DTB write hits
system.cpu.itb.write_misses                         0                       # DTB write misses
system.cpu.itb.write_acv                            0                       # DTB write access violations
system.cpu.itb.write_accesses                       0                       # DTB write accesses
system.cpu.itb.data_hits                            0                       # DTB hits
system.cpu.itb.data_misses                          0                       # DTB misses
system.cpu.itb.data_acv                             0                       # DTB access violations
system.cpu.itb.data_accesses                        0                       # DTB accesses
system.cpu.workload.num_syscalls                    9                       # Number of system calls
system.cpu.pwrStateResidencyTicks::ON    1072450558251                       # Cumulative time (in ticks) in various power states
system.cpu.numCycles                              751                       # number of cpu cycles simulated
system.cpu.numWorkItemsStarted                      0                       # number of work items this cpu started
system.cpu.numWorkItemsCompleted                    0                       # number of work items this cpu completed
system.cpu.fetch.icacheStallCycles                 50                       # Number of cycles fetch is stalled on an Icache miss
system.cpu.fetch.Insts                             34                       # Number of instructions fetch has processed
system.cpu.fetch.Branches                           6                       # Number of branches that fetch encountered
system.cpu.fetch.Cycles                             5                       # Number of cycles fetch has run and was not squashing or blocked
system.cpu.fetch.SquashCycles                       9                       # Number of cycles fetch has spent squashing
system.cpu.fetch.PendingDrainCycles                 6                       # Number of cycles fetch has spent waiting on pipes to drain
system.cpu.fetch.CacheLines                         7                       # Number of cache lines fetched
system.cpu.fetch.IcacheSquashes                     4                       # Number of outstanding Icache misses that were squashed
system.cpu.fetch.rateDist::samples                 65                       # Number of instructions fetched each cycle (Total)
system.cpu.fetch.rateDist::mean              0.523077                       # Number of instructions fetched each cycle (Total)
system.cpu.fetch.rateDist::stdev             1.880057                       # Number of instructions fetched each cycle (Total)
system.cpu.fetch.rateDist::underflows               0      0.00%      0.00% # Number of instructions fetched each cycle (Total)
system.cpu.fetch.rateDist::0                       60     92.31%     92.31% # Number of instructions fetched each cycle (Total)
system.cpu.fetch.rateDist::1                        0      0.00%     92.31% # Number of instructions fetched each cycle (Total)
system.cpu.fetch.rateDist::2                        0      0.00%     92.31% # Number of instructions fetched each cycle (Total)
system.cpu.fetch.rateDist::3                        0      0.00%     92.31% # Number of instructions fetched each cycle (Total)
system.cpu.fetch.rateDist::4                        1      1.54%     93.85% # Number of instructions fetched each cycle (Total)
system.cpu.fetch.rateDist::5                        0      0.00%     93.85% # Number of instructions fetched each cycle (Total)
system.cpu.fetch.rateDist::6                        1      1.54%     95.38% # Number of instructions fetched each cycle (Total)
system.cpu.fetch.rateDist::7                        0      0.00%     95.38% # Number of instructions fetched each cycle (Total)
system.cpu.fetch.rateDist::8                        3      4.62%    100.00% # Number of instructions fetched each cycle (Total)
system.cpu.fetch.rateDist::overflows                0      0.00%    100.00% # Number of instructions fetched each cycle (Total)
system.cpu.fetch.rateDist::min_value                0                       # Number of instructions fetched each cycle (Total)
system.cpu.fetch.rateDist::max_value                8                       # Number of instructions fetched each cycle (Total)
system.cpu.fetch.rateDist::total                   65                       # Number of instructions fetched each cycle (Total)
[...]
system.switch_cpus_1.iq.int_inst_queue_wakeup_accesses    235626150                       # Number of integer instruction queue wakeup accesses
system.switch_cpus_1.iq.fp_inst_queue_reads       479569                       # Number of floating instruction queue reads
system.switch_cpus_1.iq.fp_inst_queue_writes       343233                       # Number of floating instruction queue writes
system.switch_cpus_1.iq.fp_inst_queue_wakeup_accesses       212422                       # Number of floating instruction queue wakeup accesses
system.switch_cpus_1.iq.int_alu_accesses    249095552                       # Number of integer alu accesses
system.switch_cpus_1.iq.fp_alu_accesses        246316                       # Number of floating point alu accesses
system.switch_cpus_1.iew.lsq.thread0.forwLoads      8574178                       # Number of loads that had data forwarded from stores
system.switch_cpus_1.iew.lsq.thread0.invAddrLoads            0                       # Number of loads ignored due to an invalid address
system.switch_cpus_1.iew.lsq.thread0.squashedLoads     24780864                       # Number of loads squashed
system.switch_cpus_1.iew.lsq.thread0.ignoredResponses        41870                       # Number of memory responses ignored because the instruction is squashed
system.switch_cpus_1.iew.lsq.thread0.memOrderViolation        81420                       # Number of memory ordering violations
system.switch_cpus_1.iew.lsq.thread0.squashedStores     10606172                       # Number of stores squashed
system.switch_cpus_1.iew.lsq.thread0.invAddrSwpfs            0                       # Number of software prefetches ignored due to an invalid address
system.switch_cpus_1.iew.lsq.thread0.blockedLoads            0                       # Number of blocked loads due to partial load-store forwarding
system.switch_cpus_1.iew.lsq.thread0.rescheduledLoads           51                       # Number of loads that were rescheduled
system.switch_cpus_1.iew.lsq.thread0.cacheBlocked       159202                       # Number of times an access to memory failed due to the cache being blocked
system.switch_cpus_1.iew.iewIdleCycles              0                       # Number of cycles IEW is idle
system.switch_cpus_1.iew.iewSquashCycles      2077843                       # Number of cycles IEW is squashing
system.switch_cpus_1.iew.iewBlockCycles      16899300                       # Number of cycles IEW is blocking
system.switch_cpus_1.iew.iewUnblockCycles     11466790                       # Number of cycles IEW is unblocking
system.switch_cpus_1.iew.iewDispatchedInsts    280917266                       # Number of instructions dispatched to IQ
system.switch_cpus_1.iew.iewDispSquashedInsts       645618                       # Number of squashed instructions skipped by dispatch
system.switch_cpus_1.iew.iewDispLoadInsts     89888392                       # Number of dispatched load instructions
system.switch_cpus_1.iew.iewDispStoreInsts     38778133                       # Number of dispatched store instructions
system.switch_cpus_1.iew.iewDispNonSpecInsts        84693                       # Number of dispatched non-speculative instructions
system.switch_cpus_1.iew.iewIQFullEvents       349546                       # Number of times the IQ has become full, causing a stall
system.switch_cpus_1.iew.iewLSQFullEvents     11138903                       # Number of times the LSQ has become full, causing a stall
system.switch_cpus_1.iew.memOrderViolationEvents        81420                       # Number of memory order violations
system.switch_cpus_1.iew.predictedTakenIncorrect       932888                       # Number of branches that were predicted taken incorrectly
system.switch_cpus_1.iew.predictedNotTakenIncorrect       735090                       # Number of branches that were predicted not taken incorrectly
system.switch_cpus_1.iew.branchMispredicts      1667978                       # Number of branch mispredicts detected at execute
system.switch_cpus_1.iew.iewExecutedInsts    239204691                       # Number of executed instructions
system.switch_cpus_1.iew.iewExecLoadInsts     78311519                       # Number of load instructions executed
system.switch_cpus_1.iew.iewExecSquashedInsts      2913239                       # Number of squashed instructions skipped in execute
system.switch_cpus_1.iew.exec_swp                   0                       # number of swp insts executed
system.switch_cpus_1.iew.exec_nop             6952287                       # number of nop insts executed
system.switch_cpus_1.iew.exec_refs          112483032                       # number of memory reference insts executed
system.switch_cpus_1.iew.exec_branches       39844224                       # Number of branches executed
system.switch_cpus_1.iew.exec_stores         34171513                       # Number of stores executed
system.switch_cpus_1.iew.exec_rate           1.203408                       # Inst execution rate
system.switch_cpus_1.iew.wb_sent            237754787                       # cumulative count of insts sent to commit
system.switch_cpus_1.iew.wb_count           235838572                       # cumulative count of insts written-back
system.switch_cpus_1.iew.wb_producers       131478999                       # num instructions producing a value
system.switch_cpus_1.iew.wb_consumers       175044410                       # num instructions consuming a value
system.switch_cpus_1.iew.wb_rate             1.186473                       # insts written-back per cycle
system.switch_cpus_1.iew.wb_fanout           0.751118                       # average fanout of values written-back
system.switch_cpus_1.commit.commitSquashedInsts     68094884                       # The number of squashed insts skipped by commit
system.switch_cpus_1.commit.commitNonSpecStalls       131982                       # The number of times commit has been forced to stall to communicate backwards
system.switch_cpus_1.commit.branchMispredicts      1458277                       # The number of times a branch was mispredicted
system.switch_cpus_1.commit.committed_per_cycle::samples    175789319                       # Number of insts commited each cycle
system.switch_cpus_1.commit.committed_per_cycle::mean     1.164861                       # Number of insts commited each cycle
system.switch_cpus_1.commit.committed_per_cycle::stdev     2.251730                       # Number of insts commited each cycle
system.switch_cpus_1.commit.committed_per_cycle::underflows            0      0.00%      0.00% # Number of insts commited each cycle
system.switch_cpus_1.commit.committed_per_cycle::0    114421439     65.09%     65.09% # Number of insts commited each cycle
system.switch_cpus_1.commit.committed_per_cycle::1     25464344     14.49%     79.58% # Number of insts commited each cycle
system.switch_cpus_1.commit.committed_per_cycle::2      9025901      5.13%     84.71% # Number of insts commited each cycle
system.switch_cpus_1.commit.committed_per_cycle::3      4123885      2.35%     87.06% # Number of insts commited each cycle
system.switch_cpus_1.commit.committed_per_cycle::4      3882091      2.21%     89.26% # Number of insts commited each cycle
system.switch_cpus_1.commit.committed_per_cycle::5      3315845      1.89%     91.15% # Number of insts commited each cycle
system.switch_cpus_1.commit.committed_per_cycle::6      2822153      1.61%     92.76% # Number of insts commited each cycle
system.switch_cpus_1.commit.committed_per_cycle::7      2027551      1.15%     93.91% # Number of insts commited each cycle
system.switch_cpus_1.commit.committed_per_cycle::8     10706110      6.09%    100.00% # Number of insts commited each cycle
system.switch_cpus_1.commit.committed_per_cycle::overflows            0      0.00%    100.00% # Number of insts commited each cycle
system.switch_cpus_1.commit.committed_per_cycle::min_value            0                       # Number of insts commited each cycle
system.switch_cpus_1.commit.committed_per_cycle::max_value            8                       # Number of insts commited each cycle
system.switch_cpus_1.commit.committed_per_cycle::total    175789319                       # Number of insts commited each cycle
system.switch_cpus_1.commit.committedInsts    204770045                       # Number of instructions committed
system.switch_cpus_1.commit.committedOps    204770045                       # Number of ops (including micro ops) committed
system.switch_cpus_1.commit.swp_count               0                       # Number of s/w prefetches committed
system.switch_cpus_1.commit.refs             93279484                       # Number of memory references committed
system.switch_cpus_1.commit.loads            65107527                       # Number of loads committed
system.switch_cpus_1.commit.membars             65988                       # Number of memory barriers committed
system.switch_cpus_1.commit.branches         33714070                       # Number of branches committed
system.switch_cpus_1.commit.fp_insts           159557                       # Number of committed floating point instructions.
system.switch_cpus_1.commit.int_insts       196778837                       # Number of committed integer instructions.
system.switch_cpus_1.commit.function_calls      2336737                       # Number of function calls committed.
system.switch_cpus_1.commit.op_class_0::No_OpClass      4770592      2.33%      2.33% # Class of committed instruction
system.switch_cpus_1.commit.op_class_0::IntAlu    106615487     52.07%     54.40% # Class of committed instruction
system.switch_cpus_1.commit.op_class_0::IntMult         2354      0.00%     54.40% # Class of committed instruction
system.switch_cpus_1.commit.op_class_0::IntDiv            0      0.00%     54.40% # Class of committed instruction
system.switch_cpus_1.commit.op_class_0::FloatAdd        29677      0.01%     54.41% # Class of committed instruction
system.switch_cpus_1.commit.op_class_0::FloatCmp         2802      0.00%     54.41% # Class of committed instruction
system.switch_cpus_1.commit.op_class_0::FloatCvt         2757      0.00%     54.41% # Class of committed instruction
system.switch_cpus_1.commit.op_class_0::FloatMult          480      0.00%     54.41% # Class of committed instruction
system.switch_cpus_1.commit.op_class_0::FloatMultAcc            0      0.00%     54.41% # Class of committed instruction
system.switch_cpus_1.commit.op_class_0::FloatDiv          424      0.00%     54.41% # Class of committed instruction
system.switch_cpus_1.commit.op_class_0::FloatMisc            0      0.00%     54.41% # Class of committed instruction
system.switch_cpus_1.commit.op_class_0::FloatSqrt            0      0.00%     54.41% # Class of committed instruction
system.switch_cpus_1.commit.op_class_0::SimdAdd            0      0.00%     54.41% # Class of committed instruction
system.switch_cpus_1.commit.op_class_0::SimdAddAcc            0      0.00%     54.41% # Class of committed instruction
system.switch_cpus_1.commit.op_class_0::SimdAlu            0      0.00%     54.41% # Class of committed instruction
system.switch_cpus_1.commit.op_class_0::SimdCmp            0      0.00%     54.41% # Class of committed instruction
system.switch_cpus_1.commit.op_class_0::SimdCvt            0      0.00%     54.41% # Class of committed instruction
system.switch_cpus_1.commit.op_class_0::SimdMisc            0      0.00%     54.41% # Class of committed instruction
system.switch_cpus_1.commit.op_class_0::SimdMult            0      0.00%     54.41% # Class of committed instruction
system.switch_cpus_1.commit.op_class_0::SimdMultAcc            0      0.00%     54.41% # Class of committed instruction
system.switch_cpus_1.commit.op_class_0::SimdShift            0      0.00%     54.41% # Class of committed instruction
system.switch_cpus_1.commit.op_class_0::SimdShiftAcc            0      0.00%     54.41% # Class of committed instruction
system.switch_cpus_1.commit.op_class_0::SimdSqrt            0      0.00%     54.41% # Class of committed instruction
system.switch_cpus_1.commit.op_class_0::SimdFloatAdd            0      0.00%     54.41% # Class of committed instruction
system.switch_cpus_1.commit.op_class_0::SimdFloatAlu            0      0.00%     54.41% # Class of committed instruction
system.switch_cpus_1.commit.op_class_0::SimdFloatCmp            0      0.00%     54.41% # Class of committed instruction
system.switch_cpus_1.commit.op_class_0::SimdFloatCvt            0      0.00%     54.41% # Class of committed instruction
system.switch_cpus_1.commit.op_class_0::SimdFloatDiv            0      0.00%     54.41% # Class of committed instruction
system.switch_cpus_1.commit.op_class_0::SimdFloatMisc            0      0.00%     54.41% # Class of committed instruction
system.switch_cpus_1.commit.op_class_0::SimdFloatMult            0      0.00%     54.41% # Class of committed instruction
system.switch_cpus_1.commit.op_class_0::SimdFloatMultAcc            0      0.00%     54.41% # Class of committed instruction
system.switch_cpus_1.commit.op_class_0::SimdFloatSqrt            0      0.00%     54.41% # Class of committed instruction
system.switch_cpus_1.commit.op_class_0::MemRead     65122112     31.80%     86.22% # Class of committed instruction
system.switch_cpus_1.commit.op_class_0::MemWrite     28099943     13.72%     99.94% # Class of committed instruction
system.switch_cpus_1.commit.op_class_0::FloatMemRead        51403      0.03%     99.96% # Class of committed instruction
system.switch_cpus_1.commit.op_class_0::FloatMemWrite        72014      0.04%    100.00% # Class of committed instruction
system.switch_cpus_1.commit.op_class_0::IprAccess            0      0.00%    100.00% # Class of committed instruction
system.switch_cpus_1.commit.op_class_0::InstPrefetch            0      0.00%    100.00% # Class of committed instruction
system.switch_cpus_1.commit.op_class_0::total    204770045                       # Class of committed instruction
system.switch_cpus_1.commit.bw_lim_events     10706110                       # number cycles where commit BW limit reached
system.switch_cpus_1.rob.rob_reads          430722309                       # The number of ROB reads
system.switch_cpus_1.rob.rob_writes         555725302                       # The number of ROB writes
system.switch_cpus_1.timesIdled               1312888                       # Number of times that the entire CPU went into an idle state and unscheduled itself
system.switch_cpus_1.idleCycles              13010662                       # Total number of cycles that the CPU has spent unscheduled due to idling
system.switch_cpus_1.committedInsts         200000002                       # Number of Instructions Simulated
system.switch_cpus_1.committedOps           200000002                       # Number of Ops (including micro ops) Simulated
system.switch_cpus_1.cpi                     0.993864                       # CPI: Cycles Per Instruction
system.switch_cpus_1.cpi_total               0.993864                       # CPI: Total CPI of All Threads
system.switch_cpus_1.ipc                     1.006174                       # IPC: Instructions Per Cycle
system.switch_cpus_1.ipc_total               1.006174                       # IPC: Total IPC of All Threads
system.switch_cpus_1.int_regfile_reads      304246193                       # number of integer regfile reads
system.switch_cpus_1.int_regfile_writes     165675588                       # number of integer regfile writes
system.switch_cpus_1.fp_regfile_reads          180109                       # number of floating regfile reads
system.switch_cpus_1.fp_regfile_writes         105993                       # number of floating regfile writes
system.switch_cpus_1.misc_regfile_reads        151468                       # number of misc regfile reads
system.switch_cpus_1.misc_regfile_writes       132243                       # number of misc regfile writes
system.tol3bus.snoop_filter.tot_requests      1294933                       # Total number of requests made to the snoop filter.
system.tol3bus.snoop_filter.hit_single_requests       645432                       # Number of requests hitting in the snoop filter with a single holder of the requested data.
system.tol3bus.snoop_filter.hit_multi_requests            0                       # Number of requests hitting in the snoop filter with multiple (>1) holders of the requested data.
system.tol3bus.snoop_filter.tot_snoops            518                       # Total number of snoops made to the snoop filter.
system.tol3bus.snoop_filter.hit_single_snoops          518                       # Number of snoops hitting in the snoop filter with a single holder of the requested data.
system.tol3bus.snoop_filter.hit_multi_snoops            0                       # Number of snoops hitting in the snoop filter with multiple (>1) holders of the requested data.
system.tol3bus.pwrStateResidencyTicks::UNDEFINED 31083864719301                       # Cumulative time (in ticks) in various power states
system.tol3bus.trans_dist::ReadResp            578532                       # Transaction distribution
system.tol3bus.trans_dist::WritebackDirty       197382                       # Transaction distribution
system.tol3bus.trans_dist::CleanEvict          554543                       # Transaction distribution
system.tol3bus.trans_dist::UpgradeReq               2                       # Transaction distribution
system.tol3bus.trans_dist::UpgradeResp              2                       # Transaction distribution
system.tol3bus.trans_dist::ReadExReq            70969                       # Transaction distribution
system.tol3bus.trans_dist::ReadExResp           70969                       # Transaction distribution
system.tol3bus.trans_dist::ReadSharedReq       578532                       # Transaction distribution
system.tol3bus.pkt_count_system.cpu.l2.mem_side::system.l3.cpu_side      1944436                       # Packet count per connected master and slave (bytes)
system.tol3bus.pkt_size_system.cpu.l2.mem_side::system.l3.cpu_side     52734336                       # Cumulative packet size per connected master and slave (bytes)
system.tol3bus.snoops                          106495                       # Total snoops (count)
system.tol3bus.snoopTraffic                   1466176                       # Total snoop traffic (bytes)
system.tol3bus.snoop_fanout::samples           755998                       # Request fanout histogram
system.tol3bus.snoop_fanout::mean            0.000685                       # Request fanout histogram
system.tol3bus.snoop_fanout::stdev           0.026167                       # Request fanout histogram
system.tol3bus.snoop_fanout::underflows             0      0.00%      0.00% # Request fanout histogram
system.tol3bus.snoop_fanout::0                 755480     99.93%     99.93% # Request fanout histogram
system.tol3bus.snoop_fanout::1                    518      0.07%    100.00% # Request fanout histogram
system.tol3bus.snoop_fanout::overflows              0      0.00%    100.00% # Request fanout histogram
system.tol3bus.snoop_fanout::min_value              0                       # Request fanout histogram
system.tol3bus.snoop_fanout::max_value              1                       # Request fanout histogram
system.tol3bus.snoop_fanout::total             755998                       # Request fanout histogram
system.tol3bus.reqLayer0.occupancy          489312198                       # Layer occupancy (ticks)
system.tol3bus.reqLayer0.utilization              0.0                       # Layer utilization (%)
system.tol3bus.respLayer0.occupancy         432568332                       # Layer occupancy (ticks)
system.tol3bus.respLayer0.utilization             0.0                       # Layer utilization (%)

---------- End Simulation Statistics   ----------
